
  EPA STORM WATER MANAGEMENT MODEL - VERSION 5.1 (Build 5.1.010)
  --------------------------------------------------------------

  20% reduces dimention size 
  WARNING 08: elevation drop exceeds length for Conduit 1-12
  WARNING 08: elevation drop exceeds length for Conduit 1-20-1
  WARNING 08: elevation drop exceeds length for Conduit 1-25-1
  WARNING 08: elevation drop exceeds length for Conduit 2-10
  WARNING 08: elevation drop exceeds length for Conduit 2-14
  WARNING 08: elevation drop exceeds length for Conduit 2-22
  WARNING 08: elevation drop exceeds length for Conduit 2-23
  WARNING 08: elevation drop exceeds length for Conduit 2-27
  WARNING 08: elevation drop exceeds length for Conduit 2-30-1
  WARNING 08: elevation drop exceeds length for Conduit 2-5
  WARNING 08: elevation drop exceeds length for Conduit 2-74-2
  WARNING 08: elevation drop exceeds length for Conduit 2-87-2
  WARNING 08: elevation drop exceeds length for Conduit 3-16-2
  WARNING 08: elevation drop exceeds length for Conduit W_L_BHR_06
  WARNING 02: maximum depth increased for Node Jun-3-155
  WARNING 02: maximum depth increased for Node In_W_J_MRD_04
  
  *************
  Element Count
  *************
  Number of rain gages ...... 1
  Number of subcatchments ... 141
  Number of nodes ........... 213
  Number of links ........... 211
  Number of pollutants ...... 0
  Number of land uses ....... 2
  
  
  ***************
  Landuse Summary
  ***************
                         Sweeping   Maximum      Last
  Name                   Interval   Removal     Swept
  ---------------------------------------------------
  Residential                0.00      0.00      0.00
  Undeveloped                0.00      0.00      0.00
  
  
  ****************
  Raingage Summary
  ****************
                                                      Data       Recording
  Name                 Data Source                    Type       Interval 
  ------------------------------------------------------------------------
  Rain Gage-01         TS-04                          CUMULATIVE  10 min.
  
  
  ********************
  Subcatchment Summary
  ********************
  Name                       Area     Width   %Imperv    %Slope Rain Gage            Outlet              
  -----------------------------------------------------------------------------------------------------------
  1-1                       33.22    209.00      2.00   19.5000 Rain Gage-01         In_W_J_FRH_03       
  1-10                       2.04     71.00      4.00   11.8000 Rain Gage-01         Jun-1-33            
  1-11                       2.65    101.00     36.00   13.0000 Rain Gage-01         Jun-1-31            
  1-12                       3.54    124.00     36.00   10.8000 Rain Gage-01         Jun-1-32            
  1-13                      21.73    198.00     11.00   12.9000 Rain Gage-01         Jun-1-34            
  1-14                       1.42     33.00      0.00   14.0000 Rain Gage-01         Jun-1-29            
  1-15                      15.11    152.00     15.00   12.7000 Rain Gage-01         Jun-1-01            
  1-16                       1.88     89.00      0.00   21.1000 Rain Gage-01         Jun-1-16            
  1-17                       3.28     48.00      0.00   13.5000 Rain Gage-01         Jun-1-17            
  1-18                       7.24     87.00     16.00   10.3000 Rain Gage-01         Jun-1-03            
  1-19                       9.48    158.00      2.00   17.9000 Rain Gage-01         Jun-1-38            
  1-2                      155.67    589.00      0.00   46.5000 Rain Gage-01         Jun-1-34            
  1-20                       4.72     96.00      9.00   14.2000 Rain Gage-01         Jun-1-26            
  1-21                       4.90    109.00     44.00   11.9000 Rain Gage-01         Jun-1-13            
  1-22                       0.92     53.00     35.00    9.1000 Rain Gage-01         Jun-1-35            
  1-23                       0.60     14.00      0.00   11.1000 Rain Gage-01         Jun-1-25            
  1-24                       0.28     17.00      0.00    6.0000 Rain Gage-01         Jun-1-22            
  1-25                       0.72     38.00      0.00    9.4000 Rain Gage-01         Jun-1-30            
  1-26                       1.27     13.00      1.00    9.4000 Rain Gage-01         Jun-1-44            
  1-27                       1.01     58.00     31.00   12.2000 Rain Gage-01         Jun-1-14            
  1-28                       0.56     12.00      0.00   14.2000 Rain Gage-01         Jun-1-39            
  1-29                      37.05    327.00      0.00   38.7000 Rain Gage-01         Jun-1-01            
  1-3                       34.81    380.00      0.00   37.4000 Rain Gage-01         Jun-1-28            
  1-4                        8.16    110.00     16.00   17.5000 Rain Gage-01         Jun-1-24            
  1-5                       67.51    344.00      1.00   34.1000 Rain Gage-01         Jun-1-11            
  1-6                        8.09    112.00      1.00   13.6000 Rain Gage-01         Jun-1-12            
  1-7                       25.54    326.00      1.00   14.2000 Rain Gage-01         Jun-1-37            
  1-8                        9.97    119.00     20.00   16.1000 Rain Gage-01         Jun-1-20            
  1-9                        3.17     71.00     33.00   12.8000 Rain Gage-01         Jun-1-42            
  2-1                        7.31    166.00      0.00    7.5000 Rain Gage-01         Jun-2-128           
  2-10                       2.34    101.00     19.00   10.4000 Rain Gage-01         Jun-2-136           
  2-11                       2.29    102.00     26.00   11.1000 Rain Gage-01         Jun-2-82            
  2-12                       7.33    162.00     22.00    9.9000 Rain Gage-01         Jun-2-123           
  2-13                       2.35     74.00      9.00   14.3000 Rain Gage-01         Jun-2-140           
  2-14                       3.62    128.00     19.00    9.7000 Rain Gage-01         Jun-2-138           
  2-15                       1.30     29.00      0.00   17.9000 Rain Gage-01         Jun-2-142           
  2-16                       0.97     31.00      0.00   11.0000 Rain Gage-01         Jun-2-70            
  2-17                       0.54     17.00      0.00   10.8000 Rain Gage-01         Jun-2-11            
  2-18                       4.99    131.00      1.00   13.2000 Rain Gage-01         Jun-2-94            
  2-19                       7.27    171.00     22.00   10.2000 Rain Gage-01         Jun-2-124           
  2-2                        5.64    125.00     31.00   11.2000 Rain Gage-01         Jun-2-74            
  2-20                       2.53    101.00      0.00   13.0000 Rain Gage-01         Jun-2-130           
  2-21                       9.13    173.00      0.00   11.1000 Rain Gage-01         Jun-2-95            
  2-22                       1.04     41.00      0.00    9.0000 Rain Gage-01         Jun-2-98            
  2-23                       1.14     71.00      0.00   13.4000 Rain Gage-01         Jun-2-144           
  2-24                       5.12    133.00     20.00   11.4000 Rain Gage-01         Jun-2-100           
  2-25                       1.86     78.00     23.00   12.7000 Rain Gage-01         Jun-2-104           
  2-26                       2.73     88.00      8.00    7.1000 Rain Gage-01         Jun-2-96            
  2-27                       0.41     25.00      0.00   11.8000 Rain Gage-01         Jun-2-79            
  2-28                       3.61    129.00     28.00   12.5000 Rain Gage-01         Jun-2-29            
  2-29                       3.04    120.00      6.00   15.9000 Rain Gage-01         Jun-2-106           
  2-3                        8.34    182.00     36.00   11.4000 Rain Gage-01         Jun-2-73            
  2-30                       1.10     59.00     12.00    9.6000 Rain Gage-01         Jun-2-52            
  2-31                       2.34    107.00     32.00    6.2000 Rain Gage-01         Jun-2-102           
  2-32                       0.92     25.00      0.00    9.4000 Rain Gage-01         Jun-2-114           
  2-33                       1.80     63.00      2.00    6.3000 Rain Gage-01         Jun-2-24            
  2-34                       1.54     60.00      1.00    8.2000 Rain Gage-01         Jun-2-24            
  2-35                       3.23    100.00      8.00    6.2000 Rain Gage-01         Jun-2-26            
  2-36                       0.58     28.00      1.00   12.5000 Rain Gage-01         Jun-2-69            
  2-37                       6.00    110.00     22.00    7.3000 Rain Gage-01         Jun-2-70            
  2-38                       2.13     98.00      6.00    8.8000 Rain Gage-01         Jun-2-70            
  2-39                       0.80     51.00      0.00   11.1000 Rain Gage-01         Jun-2-70            
  2-4                        3.14    111.00      0.00    9.5000 Rain Gage-01         Jun-2-88            
  2-40                       1.69     51.00      0.00    9.5000 Rain Gage-01         Jun-2-11            
  2-41                       1.10     46.00      0.00   11.5000 Rain Gage-01         Jun-2-19            
  2-42                       3.70     82.00      0.00   12.9000 Rain Gage-01         Jun-2-15            
  2-43                       1.32     56.00     21.00    6.8000 Rain Gage-01         Jun-2-15            
  2-44                       4.70    152.00     18.00    7.6000 Rain Gage-01         Jun-2-63            
  2-45                       1.26     77.00      0.00   16.1000 Rain Gage-01         Jun-2-34            
  2-46                       1.53     85.00     34.00   11.4000 Rain Gage-01         Jun-2-20            
  2-47                       2.01     75.00     28.00   11.9000 Rain Gage-01         Jun-2-18            
  2-48                       3.11    121.00     29.00    9.7000 Rain Gage-01         Jun-2-21            
  2-49                       3.85    109.00      5.00   10.0000 Rain Gage-01         Jun-2-03            
  2-5                       71.68    335.00      0.00   30.7000 Rain Gage-01         Jun-2-84            
  2-50                       0.85     42.00      0.00    8.7000 Rain Gage-01         Jun-2-25            
  2-51                       8.71    163.00      8.00    9.1000 Rain Gage-01         Jun-2-27            
  2-52                       0.77     21.00      0.00    7.0000 Rain Gage-01         Jun-2-68            
  2-53                       5.17    115.00      2.00   10.8000 Rain Gage-01         Jun-2-28            
  2-54                       2.57     94.00      1.00    8.5000 Rain Gage-01         Jun-2-121           
  2-55                       4.68    141.00     22.00    8.9000 Rain Gage-01         Jun-2-55            
  2-56                       2.48    104.00      5.00    6.9000 Rain Gage-01         Jun-2-05            
  2-57                       3.07     98.00     18.00    7.4000 Rain Gage-01         Jun-2-56            
  2-58                       2.66    114.00     26.00    8.5000 Rain Gage-01         Jun-2-60            
  2-59                       1.46     77.00      7.00    7.9000 Rain Gage-01         Jun-2-60            
  2-6                        0.53     35.00      0.00   21.5000 Rain Gage-01         Jun-2-72            
  2-60                       1.36     61.00     36.00    9.8000 Rain Gage-01         Jun-2-07            
  2-61                       1.46     77.00      3.00    5.4000 Rain Gage-01         Jun-2-61            
  2-62                       0.95     43.00     32.00    7.0000 Rain Gage-01         Jun-2-61            
  2-63                       4.15    117.00     24.00    7.9000 Rain Gage-01         Jun-2-08            
  2-64                       1.16     53.00     11.00   13.1000 Rain Gage-01         Jun-2-67            
  2-65                       0.95     22.00      0.00   11.4000 Rain Gage-01         Jun-2-64            
  2-66                       2.35    100.00     21.00    7.3000 Rain Gage-01         Jun-2-39            
  2-67                       1.97     48.00     22.00    8.4000 Rain Gage-01         Jun-2-40            
  2-68                       3.41    120.00     35.00    8.7000 Rain Gage-01         Jun-2-41            
  2-69                       3.20    111.00     26.00    8.6000 Rain Gage-01         Jun-2-43            
  2-7                        3.25     56.00      0.00   10.0000 Rain Gage-01         In_W_J_ZGL_02_03_3  
  2-70                       8.27    165.00     15.00    9.4000 Rain Gage-01         Jun-2-38            
  2-71                       3.45     81.00     31.00   12.4000 Rain Gage-01         Jun-2-38            
  2-72                       1.58     83.00     25.00    7.7000 Rain Gage-01         Jun-2-44            
  2-73                       2.47     76.00      2.00   18.9000 Rain Gage-01         Jun-2-91            
  2-74                       4.80    129.00     24.00    8.4000 Rain Gage-01         Jun-2-46            
  2-75                       7.69    152.00     39.00    8.5000 Rain Gage-01         Jun-2-133           
  2-76                       1.38     70.00      0.00    8.2000 Rain Gage-01         Jun-2-82            
  2-77                       3.71    103.00      0.00   11.0000 Rain Gage-01         Jun-2-129           
  2-78                       6.91    151.00      7.00    8.7000 Rain Gage-01         Jun-2-01            
  2-79                       2.90    101.00     12.00    9.0000 Rain Gage-01         Jun-2-65            
  2-8                       57.50    398.00      3.00   28.1000 Rain Gage-01         Jun-2-85            
  2-80                       1.76     72.00     31.00    9.4000 Rain Gage-01         Jun-2-49            
  2-81                       1.56     75.00     10.00    6.8000 Rain Gage-01         Jun-2-45            
  2-82                       4.50    148.00     29.00    7.3000 Rain Gage-01         Jun-2-42            
  2-83                       1.46     64.00     24.00    9.8000 Rain Gage-01         Jun-2-121           
  2-84                       0.49     25.00      0.00   11.1000 Rain Gage-01         Jun-2-11            
  2-85                       4.91    145.00      0.00   13.2000 Rain Gage-01         Jun-2-91            
  2-86                       2.59     89.00     16.00    8.4000 Rain Gage-01         Jun-2-131           
  2-87                       0.77     25.00      0.00    9.1000 Rain Gage-01         Jun-2-78            
  2-88                       0.38     12.00      0.00    7.1000 Rain Gage-01         Jun-2-12            
  2-9                        9.86    177.00      1.00   15.4000 Rain Gage-01         Jun-2-134           
  3-1                        4.11    101.00      0.00   11.1000 Rain Gage-01         Jun-3-100           
  3-10                       2.53     72.00      7.00   12.4000 Rain Gage-01         Jun-3-115           
  3-11                       1.11     47.00      0.00    6.2000 Rain Gage-01         Jun-3-111           
  3-12                      11.44    180.00      5.00    8.9000 Rain Gage-01         Jun-3-116           
  3-128                     33.02    245.00      0.00   18.7000 Rain Gage-01         In_W_J_VSK_05(W_U_VSK_03)
  3-13                      14.01    162.00      7.00   29.5000 Rain Gage-01         Jun-3-114           
  3-14                       4.21    124.00      5.00    8.2000 Rain Gage-01         Jun-3-110           
  3-142                      6.64    129.00      0.00   10.9000 Rain Gage-01         Jun-3-213           
  3-15                       0.79     31.00      1.00    5.2000 Rain Gage-01         Jun-3-154           
  3-16                       3.32    101.00     14.00    8.7000 Rain Gage-01         Jun-3-155           
  3-17                       0.31     18.00      1.00    4.0000 Rain Gage-01         Jun-3-156           
  3-18                       9.13    161.00      0.00   12.7000 Rain Gage-01         Jun-3-109           
  3-19                       5.83    143.00     22.00   14.5000 Rain Gage-01         Jun-3-152           
  3-2                        6.19    135.00      1.00   16.9000 Rain Gage-01         Jun-3-100           
  3-20                      13.20    159.00      1.00   11.3000 Rain Gage-01         Jun-3-117           
  3-21                       3.89     84.00      0.00   13.0000 Rain Gage-01         Jun-3-225           
  3-22                       4.22     82.00      0.00    7.7000 Rain Gage-01         Jun-3-149           
  3-3                        1.74     62.00     11.00   14.7000 Rain Gage-01         Jun-3-101           
  3-4                        2.39     56.00     17.00   17.7000 Rain Gage-01         Jun-3-106           
  3-5                       12.72    143.00     15.00   24.0000 Rain Gage-01         Jun-3-102           
  3-6                        5.30     81.00     16.00   32.1000 Rain Gage-01         Jun-3-104           
  3-7                        1.99     83.00     23.00   15.1000 Rain Gage-01         Jun-3-105           
  3-8                        2.78    110.00      4.00   14.1000 Rain Gage-01         Jun-3-113           
  3-9                        0.89     22.00      0.00    6.2000 Rain Gage-01         Jun-3-103           
  
  
  ************
  Node Summary
  ************
                                           Invert      Max.    Ponded    External
  Name                 Type                 Elev.     Depth      Area    Inflow  
  -------------------------------------------------------------------------------
  Jun-1-01             JUNCTION           1639.04      0.70       0.0
  Jun-1-02             JUNCTION           1570.74      0.70       0.0
  Jun-1-03             JUNCTION           1622.84      0.40       0.0
  Jun-1-04             JUNCTION           1564.59      0.80       0.0
  Jun-1-08             JUNCTION           1571.92      0.45       0.0
  Jun-1-09             JUNCTION           1570.60      0.45       0.0
  Jun-1-11             JUNCTION           1576.70      0.40       0.0
  Jun-1-12             JUNCTION           1576.60      0.40       0.0
  Jun-1-13             JUNCTION           1620.20      0.30       0.0
  Jun-1-14             JUNCTION           1580.66      0.30       0.0
  Jun-1-16             JUNCTION           1667.14      0.40       0.0
  Jun-1-17             JUNCTION           1647.60      0.40       0.0
  Jun-1-18             JUNCTION           1582.40      0.40       0.0
  Jun-1-20             JUNCTION           1645.95      0.65       0.0
  Jun-1-21             JUNCTION           1606.15      0.65       0.0
  Jun-1-22             JUNCTION           1581.25      0.65       0.0
  Jun-1-24             JUNCTION           1645.85      0.65       0.0
  Jun-1-25             JUNCTION           1619.17      0.45       0.0
  Jun-1-26             JUNCTION           1598.93      0.80       0.0
  Jun-1-28             JUNCTION           1680.10      0.40       0.0
  Jun-1-29             JUNCTION           1672.71      0.40       0.0
  Jun-1-30             JUNCTION           1580.70      0.40       0.0
  Jun-1-31             JUNCTION           1599.60      0.40       0.0
  Jun-1-32             JUNCTION           1581.78      0.40       0.0
  Jun-1-33             JUNCTION           1627.55      0.40       0.0
  Jun-1-34             JUNCTION           1642.05      0.80       0.0
  Jun-1-35             JUNCTION           1581.35      0.65       0.0
  Jun-1-37             JUNCTION           1577.05      0.45       0.0
  Jun-1-38             JUNCTION           1616.82      0.40       0.0
  Jun-1-39             JUNCTION           1670.32      0.30       0.0
  Jun-1-42             JUNCTION           1600.92      0.40       0.0
  Jun-1-44             JUNCTION           1636.60      0.40       0.0
  Jun-2-01             JUNCTION           1524.41      1.00       0.0
  Jun-2-03             JUNCTION           1539.00      1.00       0.0
  Jun-2-05             JUNCTION           1506.55      0.45       0.0
  Jun-2-06             JUNCTION           1505.05      0.45       0.0
  Jun-2-07             JUNCTION           1490.10      0.80       0.0
  Jun-2-08             JUNCTION           1487.20      0.80       0.0
  Jun-2-100            JUNCTION           1527.10      0.40       0.0
  Jun-2-101            JUNCTION           1501.76      0.40       0.0
  Jun-2-102            JUNCTION           1503.87      0.40       0.0
  Jun-2-103            JUNCTION           1494.60      0.40       0.0
  Jun-2-104            JUNCTION           1519.65      0.35       0.0
  Jun-2-105            JUNCTION           1508.65      0.35       0.0
  Jun-2-106            JUNCTION           1543.02      0.40       0.0
  Jun-2-107            JUNCTION           1520.00      0.40       0.0
  Jun-2-11             JUNCTION           1527.50      0.40       0.0
  Jun-2-114            JUNCTION           1580.20      0.70       0.0
  Jun-2-116            JUNCTION           1579.00      1.00       0.0
  Jun-2-12             JUNCTION           1513.10      0.40       0.0
  Jun-2-121            JUNCTION           1515.49      0.40       0.0
  Jun-2-123            JUNCTION           1568.10      0.40       0.0
  Jun-2-124            JUNCTION           1554.60      0.40       0.0
  Jun-2-128            JUNCTION           1553.60      0.40       0.0
  Jun-2-129            JUNCTION           1561.10      0.40       0.0
  Jun-2-13             JUNCTION           1499.60      0.40       0.0
  Jun-2-130            JUNCTION           1543.60      0.40       0.0
  Jun-2-131            JUNCTION           1491.60      0.40       0.0
  Jun-2-133            JUNCTION           1495.50      0.40       0.0
  Jun-2-134            JUNCTION           1582.80      0.40       0.0
  Jun-2-136            JUNCTION           1573.60      0.40       0.0
  Jun-2-138            JUNCTION           1536.65      0.15       0.0
  Jun-2-14             JUNCTION           1490.10      0.40       0.0
  Jun-2-140            JUNCTION           1542.15      0.70       0.0
  Jun-2-142            JUNCTION           1567.73      0.70       0.0
  Jun-2-144            JUNCTION           1508.35      0.40       0.0
  Jun-2-15             JUNCTION           1502.60      0.40       0.0
  Jun-2-16             JUNCTION           1500.60      0.40       0.0
  Jun-2-18             JUNCTION           1524.65      0.35       0.0
  Jun-2-19             JUNCTION           1543.10      0.40       0.0
  Jun-2-20             JUNCTION           1526.60      0.40       0.0
  Jun-2-21             JUNCTION           1518.60      0.40       0.0
  Jun-2-22             JUNCTION           1504.60      0.40       0.0
  Jun-2-24             JUNCTION           1557.70      0.40       0.0
  Jun-2-25             JUNCTION           1546.34      0.40       0.0
  Jun-2-26             JUNCTION           1580.86      0.40       0.0
  Jun-2-27             JUNCTION           1564.10      0.40       0.0
  Jun-2-28             JUNCTION           1552.93      0.80       0.0
  Jun-2-29             JUNCTION           1519.79      0.30       0.0
  Jun-2-30             JUNCTION           1504.40      0.30       0.0
  Jun-2-31             JUNCTION           1527.00      1.00       0.0
  Jun-2-34             JUNCTION           1533.60      0.40       0.0
  Jun-2-35             JUNCTION           1503.70      0.80       0.0
  Jun-2-36             JUNCTION           1493.20      0.80       0.0
  Jun-2-38             JUNCTION           1512.73      0.70       0.0
  Jun-2-39             JUNCTION           1537.31      0.80       0.0
  Jun-2-40             JUNCTION           1520.20      0.80       0.0
  Jun-2-41             JUNCTION           1518.55      0.45       0.0
  Jun-2-42             JUNCTION           1503.80      0.70       0.0
  Jun-2-43             JUNCTION           1486.80      0.70       0.0
  Jun-2-44             JUNCTION           1512.99      0.40       0.0
  Jun-2-45             JUNCTION           1504.10      0.40       0.0
  Jun-2-46             JUNCTION           1490.60      0.40       0.0
  Jun-2-47             JUNCTION           1469.28      0.40       0.0
  Jun-2-48             JUNCTION           1467.00      0.90       0.0
  Jun-2-49             JUNCTION           1502.20      0.40       0.0
  Jun-2-50             JUNCTION           1491.60      0.40       0.0
  Jun-2-51             JUNCTION           1471.20      0.80       0.0
  Jun-2-52             JUNCTION           1493.60      0.40       0.0
  Jun-2-53             JUNCTION           1502.60      0.30       0.0
  Jun-2-55             JUNCTION           1485.44      0.70       0.0
  Jun-2-56             JUNCTION           1503.60      0.40       0.0
  Jun-2-57             JUNCTION           1486.50      1.50       0.0
  Jun-2-58             JUNCTION           1483.80      0.70       0.0
  Jun-2-60             JUNCTION           1494.60      0.40       0.0
  Jun-2-61             JUNCTION           1486.90      0.40       0.0
  Jun-2-63             JUNCTION           1520.20      0.80       0.0
  Jun-2-64             JUNCTION           1560.20      0.80       0.0
  Jun-2-65             JUNCTION           1530.20      0.80       0.0
  Jun-2-66             JUNCTION           1542.65      0.80       0.0
  Jun-2-67             JUNCTION           1566.20      0.80       0.0
  Jun-2-68             JUNCTION           1576.40      0.70       0.0
  Jun-2-69             JUNCTION           1557.50      1.00       0.0
  Jun-2-70             JUNCTION           1543.40      1.00       0.0
  Jun-2-71             JUNCTION           1542.62      0.70       0.0
  Jun-2-72             JUNCTION           1537.30      0.70       0.0
  Jun-2-73             JUNCTION           1574.60      0.40       0.0
  Jun-2-74             JUNCTION           1568.30      0.70       0.0
  Jun-2-75             JUNCTION           1471.00      0.80       0.0
  Jun-2-78             JUNCTION           1489.30      0.70       0.0
  Jun-2-79             JUNCTION           1493.30      0.70       0.0
  Jun-2-82             JUNCTION           1548.30      0.70       0.0
  Jun-2-84             JUNCTION           1581.60      0.40       0.0
  Jun-2-85             JUNCTION           1645.80      0.70       0.0
  Jun-2-88             JUNCTION           1572.70      0.30       0.0
  Jun-2-89             JUNCTION           1562.20      0.30       0.0
  Jun-2-91             JUNCTION           1535.30      0.70       0.0
  Jun-2-94             JUNCTION           1578.70      0.30       0.0
  Jun-2-95             JUNCTION           1550.60      0.40       0.0
  Jun-2-96             JUNCTION           1502.60      0.40       0.0
  Jun-2-97             JUNCTION           1495.60      0.40       0.0
  Jun-2-98             JUNCTION           1506.60      0.40       0.0
  Jun-3-100            JUNCTION           1582.59      0.30       0.0
  Jun-3-101            JUNCTION           1581.60      0.70       0.0
  Jun-3-102            JUNCTION           1634.06      0.30       0.0
  Jun-3-103            JUNCTION           1578.81      0.70       0.0
  Jun-3-104            JUNCTION           1670.83      0.40       0.0
  Jun-3-105            JUNCTION           1642.92      0.40       0.0
  Jun-3-106            JUNCTION           1578.94      0.70       0.0
  Jun-3-107            JUNCTION           1580.08      0.70       0.0
  Jun-3-108            JUNCTION           1581.56      0.40       0.0
  Jun-3-109            JUNCTION           1563.55      0.70       0.0
  Jun-3-110            JUNCTION           1573.46      0.70       0.0
  Jun-3-111            JUNCTION           1583.60      0.40       0.0
  Jun-3-112            JUNCTION           1611.60      0.40       0.0
  Jun-3-113            JUNCTION           1583.60      0.40       0.0
  Jun-3-114            JUNCTION           1637.28      0.40       0.0
  Jun-3-115            JUNCTION           1585.27      0.30       0.0
  Jun-3-116            JUNCTION           1582.89      0.40       0.0
  Jun-3-117            JUNCTION           1532.43      0.70       0.0
  Jun-3-149            JUNCTION           1492.18      0.20       0.0
  Jun-3-150            JUNCTION           1537.56      0.40       0.0
  Jun-3-151            JUNCTION           1522.76      0.80       0.0
  Jun-3-152            JUNCTION           1549.70      0.80       0.0
  Jun-3-154            JUNCTION           1550.78      0.40       0.0
  Jun-3-155            JUNCTION           1553.83      0.30       0.0
  Jun-3-156            JUNCTION           1561.21      0.70       0.0
  Jun-3-213            JUNCTION           1504.39      0.30       0.0
  Jun-3-225            JUNCTION           1519.60      0.40       0.0
  In_W_J_BHR_01(W_RU_BHR_01) JUNCTION           1517.95      6.00       0.0
  In_W_J_BHR_02        JUNCTION           1514.98      6.00       0.0
  In_W_J_BHR_03        JUNCTION           1492.21      6.00       0.0
  In_W_J_BHR_04        JUNCTION           1488.84      6.00       0.0
  In_W_J_BHR_05(W_U_BHR_02) JUNCTION           1472.96      6.00       0.0
  In_W_J_BHR_06        JUNCTION           1442.96      2.60       0.0
  In_W_J_FRH_01(W_RU_FRH_01) JUNCTION           1672.81      7.00       0.0
  In_W_J_FRH_02(W_RU_FRH_02) JUNCTION           1555.79      7.00       0.0
  In_W_J_FRH_03        JUNCTION           1427.79      6.00       0.0
  In_W_J_FRH_04        JUNCTION           1412.56     14.00       0.0
  In_W_J_FRH_05(W_U_FRH_03) JUNCTION           1395.79     13.00       0.0
  In_W_J_MRD_01(W_RU_MRD_01) JUNCTION           1450.08      6.00       0.0
  In_W_J_MRD_02(W_U_MRD_03) JUNCTION           1446.06      6.00       0.0
  In_W_J_MRD_03        JUNCTION           1435.82      2.97       0.0
  In_W_J_MRD_04        JUNCTION           1433.61      1.40       0.0
  In_W_J_MRD_04_05_1   JUNCTION           1426.00      6.00       0.0
  In_W_J_MRD_04_05_2   JUNCTION           1427.00      6.00       0.0
  In_W_J_MRD_04_05_3   JUNCTION           1429.00      6.00       0.0
  In_W_J_MRD_05(W_U_MRD_02) JUNCTION           1434.67      1.61       0.0
  In_W_J_MRD_05(W_U_MRD_02)_1 JUNCTION           1432.00      6.00       0.0
  In_W_J_MRD_05_002    JUNCTION           1430.00      6.00       0.0
  In_W_J_MRD_05_06_1   JUNCTION           1425.00      6.00       0.0
  In_W_J_MRD_06        JUNCTION           1426.79      2.00       0.0
  In_W_J_MRD_07        JUNCTION           1420.79      7.00       0.0
  In_W_J_MRD_08        JUNCTION           1413.56      8.22       0.0
  In_W_J_MRD_09        JUNCTION           1405.98      8.80       0.0
  In_W_J_MRD_10        JUNCTION           1403.07      4.72       0.0
  In_W_J_VSK_01(W_U_VSK_02) JUNCTION           1280.27      3.80       0.0
  In_W_J_VSK_02(W_RU_VSK_01) JUNCTION           1280.23      3.80       0.0
  In_W_J_VSK_03        JUNCTION           1280.06      3.80       0.0
  In_W_J_VSK_04        JUNCTION           1276.01      3.80       0.0
  In_W_J_VSK_05(W_U_VSK_03) JUNCTION           1275.84      3.80       0.0
  In_W_J_VSK_06        JUNCTION           1275.21      4.00       0.0
  In_W_J_VSK_07        JUNCTION           1270.67      4.20       0.0
  In_W_J_VSK_08        JUNCTION           1270.21      4.50       0.0
  In_W_J_VSK_09        JUNCTION           1269.68      4.50       0.0
  In_W_J_VSK_10(W_U_VSK_05) JUNCTION           1268.78      4.20       0.0
  In_W_J_ZGL_01(W_U_ZGL_01) JUNCTION           1302.77      6.00       0.0
  In_W_J_ZGL_02(W_U_ZGL_02) JUNCTION           1301.43      6.00       0.0
  In_W_J_ZGL_02_03_2   JUNCTION           1295.00      6.00       0.0
  In_W_J_ZGL_02_03_3   JUNCTION           1297.00      6.00       0.0
  In_W_J_ZGL_02_03_4   JUNCTION           1301.00      6.00       0.0
  In_W_J_ZGL_03(W_U_ZGL_03) JUNCTION           1289.89      6.00       0.0
  In_W_J_ZGL_03_02     JUNCTION           1293.00      6.00       0.0
  In_W_J_ZGL_03_02_3   JUNCTION           1294.00      6.00       0.0
  In_W_J_ZGL_04        JUNCTION           1287.41      6.30       0.0
  In_W_J_ZGL_04_05     JUNCTION           1286.00      6.00       0.0
  In_W_J_ZGL_05(W_U_ZGL_04) JUNCTION           1280.62      7.00       0.0
  In_W_J_ZGL_05_06     JUNCTION           1274.00      7.78       0.0
  In_W_J_ZGL_06        JUNCTION           1269.01      8.31       0.0
  In_W_J_ZGL_07        JUNCTION           1268.82      6.90       0.0
  In_W_J_ZGL_08        JUNCTION           1268.28      4.34       0.0
  In_W_J_FRH_06(W_U_FRH_04) OUTFALL            1351.61      2.00       0.0
  In_W_J_VSK_11        OUTFALL            1267.63      4.20       0.0
  
  
  ************
  Link Summary
  ************
  Name             From Node        To Node          Type            Length    %Slope Roughness
  ---------------------------------------------------------------------------------------------
  1-10             Jun-1-33         Jun-1-31         CONDUIT          283.3    9.9132    0.0150
  1-11             Jun-1-31         Jun-1-32         CONDUIT          218.4    8.1851    0.0150
  1-12             Jun-1-32         In_W_J_MRD_03    CONDUIT          118.4  123.2807    0.0150
  1-13             Jun-1-34         In_W_J_MRD_03    CONDUIT          735.4   29.2167    0.0150
  1-14             Jun-1-29         Jun-1-30         CONDUIT          890.4   10.3896    0.0150
  1-15             Jun-1-01         Jun-1-02         CONDUIT          956.6    7.1584    0.0150
  1-16             Jun-1-16         Jun-1-17         CONDUIT          140.4   14.0542    0.0150
  1-17             Jun-1-17         Jun-1-18         CONDUIT          682.6    9.5962    0.0150
  1-17-1           Jun-1-18         In_W_J_MRD_04_05_2 CONDUIT          180.4  169.4238    0.0150
  1-18             Jun-1-03         Jun-1-04         CONDUIT          883.6    6.6065    0.0150
  1-19             Jun-1-38         Jun-1-26         CONDUIT          570.8    3.1356    0.0150
  1-20             Jun-1-26         Jun-1-04         CONDUIT          481.1    7.1564    0.0150
  1-20-1           Jun-1-04         In_W_J_MRD_07    CONDUIT           29.3  491.3051    0.0150
  1-21             Jun-1-13         Jun-1-14         CONDUIT          435.8    9.1108    0.0150
  1-22             Jun-1-35         In_W_J_MRD_04_05_3 CONDUIT          160.7  298.5347    0.0150
  1-23             Jun-1-25         Jun-1-35         CONDUIT          435.2    8.7227    0.0150
  1-24             Jun-1-22         In_W_J_MRD_04_05_3 CONDUIT          160.2  305.6777    0.0150
  1-25             Jun-1-30         Jun-1-02         CONDUIT          132.0    7.5682    0.0150
  1-25-1           Jun-1-02         In_W_J_MRD_04_05_1 CONDUIT           33.5  432.3178    0.0150
  1-26             Jun-1-44         In_W_J_MRD_05_06_1 CONDUIT          993.3   21.8027    0.0150
  1-27             Jun-1-14         In_W_J_MRD_04_05_2 CONDUIT          159.6  356.8300    0.0150
  1-28             Jun-1-39         Jun-1-13         CONDUIT          417.5   12.0911    0.0150
  1-3              Jun-1-28         Jun-1-29         CONDUIT          184.8    4.0030    0.0150
  1-4              Jun-1-24         Jun-1-25         CONDUIT          290.6    9.2212    0.0150
  1-5              Jun-1-11         Jun-1-09         CONDUIT          185.0    3.2989    0.0150
  1-6              Jun-1-12         Jun-1-08         CONDUIT           81.4    5.7589    0.0150
  1-7              Jun-1-37         Jun-1-08         CONDUIT          427.0    1.2015    0.0150
  1-7-1            Jun-1-08         Jun-1-09         CONDUIT          236.4    0.5584    0.0150
  1-7-2            Jun-1-09         In_W_J_MRD_03    CONDUIT          173.3  123.7151    0.0150
  1-8              Jun-1-20         Jun-1-21         CONDUIT          448.0    8.9196    0.0150
  1-8-1            Jun-1-21         Jun-1-22         CONDUIT          280.2    8.9218    0.0150
  1-9              Jun-1-42         In_W_J_MRD_04    CONDUIT          385.3   48.2051    0.0150
  2-1              Jun-2-128        Jun-2-71         CONDUIT          303.3    3.6222    0.0150
  2-10             Jun-2-136        In_W_J_ZGL_02_03_3 CONDUIT          195.1  141.7408    0.0150
  2-1-1            Jun-2-71         Jun-2-72         CONDUIT          156.3    3.4068    0.0150
  2-12             Jun-2-123        Jun-2-82         CONDUIT          256.5    7.7412    0.0150
  2-13             Jun-2-140        In_W_J_ZGL_03_02 CONDUIT          296.2  155.5512    0.0150
  2-14             Jun-2-138        In_W_J_ZGL_03_02_3 CONDUIT          224.7  107.9899    0.0150
  2-15             Jun-2-142        In_W_J_ZGL_03_02 CONDUIT          650.8   46.5627    0.0150
  2-16             Jun-2-116        Jun-2-69         CONDUIT          334.0    6.4497    0.0150
  2-18             Jun-2-94         Jun-2-95         CONDUIT          376.1    7.4914    0.0150
  2-19             Jun-2-124        Jun-2-19         CONDUIT          350.1    3.2865    0.0150
  2-2              Jun-2-74         Jun-2-71         CONDUIT          315.9    8.1574    0.0150
  2-20             Jun-2-130        Jun-2-100        CONDUIT          149.8   11.0844    0.0150
  2-21             Jun-2-95         Jun-2-98         CONDUIT          521.0    8.4761    0.0150
  2-22             Jun-2-98         In_W_J_ZGL_03(W_U_ZGL_03) CONDUIT           44.3  488.9711    0.0150
  2-23             Jun-2-144        In_W_J_ZGL_03(W_U_ZGL_03) CONDUIT          155.4  140.5388    0.0150
  2-24             Jun-2-100        Jun-2-101        CONDUIT          359.4    7.0688    0.0150
  2-24-1           Jun-2-101        Jun-2-97         CONDUIT          113.3    5.4449    0.0150
  2-25             Jun-2-104        Jun-2-105        CONDUIT          185.5    5.9410    0.0150
  2-25-1           Jun-2-105        Jun-2-101        CONDUIT          190.0    3.6283    0.0150
  2-26             Jun-2-96         Jun-2-97         CONDUIT          270.3    2.5904    0.0150
  2-26-1           Jun-2-97         Jun-2-79         CONDUIT           30.9    7.4689    0.0150
  2-27             Jun-2-79         In_W_J_ZGL_04_05 CONDUIT          144.8  143.1432    0.0150
  2-28             Jun-2-29         Jun-2-30         CONDUIT          256.8    6.0047    0.0150
  2-28-1           Jun-2-30         Jun-2-53         CONDUIT          140.2    1.2841    0.0150
  2-28-2           Jun-2-53         Jun-2-16         CONDUIT           64.6    3.0989    0.0150
  2-28-3           Jun-2-16         Jun-2-13         CONDUIT           13.4    7.4779    0.0150
  2-29             Jun-2-106        Jun-2-107        CONDUIT          238.7    9.6874    0.0150
  2-29-1           Jun-2-107        Jun-2-102        CONDUIT          228.9    7.0640    0.0150
  2-3              Jun-2-73         Jun-2-72         CONDUIT          402.1    9.3169    0.0150
  2-30             Jun-2-52         Jun-2-14         CONDUIT          130.2    2.6898    0.0150
  2-30-1           Jun-2-14         In_W_J_ZGL_04_05 CONDUIT           18.0 1133.8889    0.0150
  2-31             Jun-2-102        Jun-2-103        CONDUIT          138.0    6.7346    0.0150
  2-31-1           Jun-2-103        Jun-2-79         CONDUIT           27.0    4.8186    0.0150
  2-32             Jun-2-114        Jun-2-68         CONDUIT          526.6    0.7216    0.0150
  2-34-1           Jun-2-24         Jun-2-25         CONDUIT          157.5    7.2306    0.0150
  2-35             Jun-2-26         Jun-2-27         CONDUIT          353.5    4.7469    0.0150
  2-36             Jun-2-69         Jun-2-70         CONDUIT          196.6    7.1908    0.0150
  2-38             Jun-2-70         Jun-2-03         CONDUIT           62.0    7.1090    0.0150
  2-4              Jun-2-88         Jun-2-89         CONDUIT          128.6    8.1948    0.0150
  2-41             Jun-2-19         Jun-2-20         CONDUIT          152.1   10.9096    0.0150
  2-4-1            Jun-2-89         In_W_J_ZGL_02_03_3 CONDUIT          290.1  225.2967    0.0150
  2-43             Jun-2-15         Jun-2-16         CONDUIT          120.9    1.6543    0.0150
  2-44             Jun-2-63         Jun-2-35         CONDUIT          249.3    6.6325    0.0150
  2-44-1           Jun-2-35         Jun-2-36         CONDUIT          154.2    6.8252    0.0150
  2-45             Jun-2-34         Jun-2-11         CONDUIT          138.4    4.4102    0.0150
  2-46             Jun-2-20         Jun-2-21         CONDUIT          105.2    7.6288    0.0150
  2-46-1           Jun-2-22         Jun-2-15         CONDUIT           85.3    2.3464    0.0150
  2-47             Jun-2-18         Jun-2-12         CONDUIT          297.3    3.8886    0.0150
  2-48             Jun-2-21         Jun-2-22         CONDUIT          212.2    6.6113    0.0150
  2-49             Jun-2-03         Jun-2-31         CONDUIT          332.5    3.6115    0.0150
  2-49-1           Jun-2-31         Jun-2-01         CONDUIT           48.2    5.3790    0.0150
  2-5              Jun-2-84         In_W_J_ZGL_02(W_U_ZGL_02) CONDUIT          204.4  137.0436    0.0150
  2-50             Jun-2-25         Jun-2-31         CONDUIT          315.2    6.1468    0.0150
  2-51             Jun-2-27         Jun-2-28         CONDUIT          416.7    2.6817    0.0150
  2-52             Jun-2-68         Jun-2-67         CONDUIT          444.5    2.2952    0.0150
  2-53             Jun-2-28         Jun-2-66         CONDUIT          132.8    7.7613    0.0150
  2-53-1           Jun-2-66         Jun-2-65         CONDUIT          185.4    6.7315    0.0150
  2-56             Jun-2-05         Jun-2-06         CONDUIT          186.2    0.8056    0.0150
  2-56-1           Jun-2-06         Jun-2-35         CONDUIT          273.4    0.4939    0.0150
  2-57             Jun-2-56         Jun-2-57         CONDUIT          234.9    7.2997    0.0150
  2-57-1           Jun-2-57         Jun-2-58         CONDUIT           24.1   11.2743    0.0150
  2-58             Jun-2-60         Jun-2-36         CONDUIT          170.8    0.8198    0.0150
  2-58-1           Jun-2-36         Jun-2-07         CONDUIT           67.0    4.6304    0.0150
  2-6              Jun-2-72         Jun-2-91         CONDUIT          138.0    1.4491    0.0150
  2-60-1           Jun-2-07         Jun-2-08         CONDUIT           46.5    6.2487    0.0150
  2-61             Jun-2-61         Jun-2-57         CONDUIT          127.2    0.3144    0.0150
  2-63             Jun-2-08         Jun-2-51         CONDUIT          226.4    7.0861    0.0150
  2-63-1           Jun-2-51         Jun-2-75         CONDUIT           86.8    0.2305    0.0150
  2-63-2           Jun-2-75         Jun-2-47         CONDUIT          158.8    1.0833    0.0150
  2-64             Jun-2-67         Jun-2-28         CONDUIT          261.4    5.0833    0.0150
  2-65             Jun-2-64         Jun-2-39         CONDUIT          371.1    6.1796    0.0150
  2-66             Jun-2-39         Jun-2-40         CONDUIT          225.7    7.6017    0.0150
  2-67             Jun-2-40         Jun-2-38         CONDUIT          399.3    1.8713    0.0150
  2-68             Jun-2-41         Jun-2-42         CONDUIT          226.6    6.5245    0.0150
  2-69             Jun-2-43         Jun-2-51         CONDUIT          207.4    7.5412    0.0150
  2-71             Jun-2-38         Jun-2-49         CONDUIT          180.3    5.8493    0.0320
  2-72             Jun-2-44         Jun-2-45         CONDUIT          139.1    6.4033    0.0150
  2-73             Jun-2-91         In_W_J_ZGL_02_03_2 CONDUIT          289.5  148.8220    0.0150
  2-74             Jun-2-46         Jun-2-47         CONDUIT          342.3    6.2398    0.0150
  2-74-1           Jun-2-47         Jun-2-48         CONDUIT           13.8   16.7520    0.0150
  2-74-2           Jun-2-48         In_W_J_ZGL_05_06 CONDUIT           86.3  223.6903    0.0150
  2-75             Jun-2-133        In_W_J_ZGL_05_06 CONDUIT          516.7   47.4492    0.0150
  2-76             Jun-2-82         In_W_J_ZGL_02_03_2 CONDUIT          281.5  206.2985    0.0150
  2-77             Jun-2-129        Jun-2-128        CONDUIT          240.1    3.1251    0.0150
  2-78-1           Jun-2-01         Jun-2-63         CONDUIT          265.6    1.5853    0.0150
  2-79             Jun-2-65         Jun-2-63         CONDUIT          138.4    7.2459    0.0150
  2-8              Jun-2-85         In_W_J_ZGL_02(W_U_ZGL_02) CONDUIT          764.3   50.4682    0.0150
  2-80             Jun-2-49         Jun-2-50         CONDUIT          225.1    4.7138    0.0150
  2-80-1           Jun-2-50         Jun-2-48         CONDUIT          361.0    6.8309    0.0150
  2-81             Jun-2-45         Jun-2-46         CONDUIT          207.0    6.5353    0.0150
  2-82             Jun-2-42         Jun-2-43         CONDUIT          260.3    6.5459    0.0150
  2-83             Jun-2-121        Jun-2-06         CONDUIT          159.3    6.5686    0.0150
  2-84             Jun-2-11         Jun-2-12         CONDUIT          361.5    3.9866    0.0150
  2-86             Jun-2-131        In_W_J_ZGL_05_06 CONDUIT          542.5   43.7835    0.0150
  2-87             Jun-2-78         Jun-2-55         CONDUIT          289.1    1.3354    0.0150
  2-87-1           Jun-2-55         Jun-2-58         CONDUIT          115.2    1.4239    0.0150
  2-87-2           Jun-2-58         In_W_J_ZGL_05(W_U_ZGL_04) CONDUIT           88.4  229.8933    0.0150
  2-88             Jun-2-12         Jun-2-13         CONDUIT          328.3    4.1154    0.0150
  2-88-1           Jun-2-13         Jun-2-14         CONDUIT           25.9   39.3749    0.0150
  2-9              Jun-2-134        In_W_J_ZGL_02_03_4 CONDUIT          543.3   60.6700    0.0150
  3-10             Jun-3-115        Jun-3-113        CONDUIT           87.8    1.9028    0.0150
  3-11             Jun-3-111        Jun-3-110        CONDUIT          169.7    5.9870    0.0150
  3-12             Jun-3-116        Jun-3-108        CONDUIT          311.7    0.4267    0.0150
  3-12-1           Jun-3-108        Jun-3-109        CONDUIT          245.6    7.3529    0.0150
  3-13             Jun-3-114        Jun-3-111        CONDUIT          616.5    8.7401    0.0150
  3-14             Jun-3-110        Jun-3-109        CONDUIT          258.8    3.8319    0.0150
  3-142            Jun-3-213        In_W_J_VSK_09    CONDUIT          702.2   35.4645    0.0150
  3-15             Jun-3-154        Jun-3-150        CONDUIT          237.0    5.5865    0.0150
  3-16             Jun-3-155        Jun-3-150        CONDUIT          257.5    6.3311    0.0150
  3-16-1           Jun-3-150        Jun-3-151        CONDUIT          223.3    6.6416    0.0150
  3-16-2           Jun-3-151        In_W_J_VSK_06    CONDUIT           34.2  722.9907    0.0150
  3-17             Jun-3-156        Jun-3-152        CONDUIT          174.2    6.6226    0.0150
  3-18             Jun-3-109        In_W_J_VSK_05(W_U_VSK_03) CONDUIT          359.9  133.1073    0.0150
  3-19             Jun-3-152        Jun-3-151        CONDUIT          399.4    6.7602    0.0150
  3-2              Jun-3-100        Jun-3-101        CONDUIT           82.1    1.2059    0.0150
  3-20             Jun-3-117        In_W_J_VSK_09    CONDUIT         1106.4   24.4473    0.0150
  3-21             Jun-3-225        In_W_J_VSK_07    CONDUIT          461.5   64.0490    0.0150
  3-22             Jun-3-149        In_W_J_VSK_09    CONDUIT          508.0   48.7192    0.0150
  3-3              Jun-3-101        Jun-3-107        CONDUIT           90.3    1.6826    0.0150
  3-3-1            Jun-3-107        Jun-3-106        CONDUIT           64.0    1.7818    0.0150
  3-3-2            Jun-3-106        Jun-3-103        CONDUIT           31.5    0.4128    0.0150
  3-5              Jun-3-102        Jun-3-103        CONDUIT          423.5   13.1579    0.0150
  3-6              Jun-3-104        Jun-3-105        CONDUIT          180.0   15.6954    0.0150
  3-7              Jun-3-105        Jun-3-112        CONDUIT          270.4   11.6609    0.0150
  3-7-1            Jun-3-112        Jun-3-113        CONDUIT          239.4   11.7767    0.0150
  3-8              Jun-3-113        Jun-3-103        CONDUIT          130.3    3.6792    0.0150
  3-9              Jun-3-103        Jun-3-110        CONDUIT          451.9    1.1839    0.0150
  W_L_ZGL_051      In_W_J_ZGL_05_06 In_W_J_ZGL_06    CONDUIT          465.8    1.0717    0.0120
  W_L_ZGL_041      In_W_J_ZGL_04_05 In_W_J_ZGL_05(W_U_ZGL_04) CONDUIT          490.6    1.0971    0.0120
  W_L_ZGL_025      In_W_J_ZGL_03_02 In_W_J_ZGL_03(W_U_ZGL_03) CONDUIT          336.0    0.9262    0.0120
  W_L_ZGL_023      In_W_J_ZGL_02_03_2 In_W_J_ZGL_03_02_3 CONDUIT          145.6    0.6867    0.0120
  W_L_ZGL_022      In_W_J_ZGL_02_03_3 In_W_J_ZGL_02_03_2 CONDUIT          162.9    1.2275    0.0120
  W_L_ZGL_021      In_W_J_ZGL_02_03_4 In_W_J_ZGL_02_03_3 CONDUIT          701.9    0.5699    0.0120
  W_L_MRD_053      In_W_J_MRD_04_05_1 In_W_J_MRD_05_06_1 CONDUIT           91.3    1.0955    0.0170
  W_L_MRD_061      In_W_J_MRD_05(W_U_MRD_02)_1 In_W_J_MRD_05_002 CONDUIT          137.7    1.4524    0.0170
  W_L_MRD_062      In_W_J_MRD_05_002 In_W_J_MRD_06    CONDUIT          314.1    1.0238    0.0170
  W_L_MRD_051      In_W_J_MRD_04_05_3 In_W_J_MRD_04_05_2 CONDUIT          133.5    1.4978    0.0170
  W_L_MRD_052      In_W_J_MRD_04_05_2 In_W_J_MRD_04_05_1 CONDUIT           47.7    2.0978    0.0170
  W_L_MRD_054      In_W_J_MRD_05_06_1 In_W_J_MRD_07    CONDUIT          236.7    1.7807    0.0170
  W_L_ZGL_024      In_W_J_ZGL_03_02_3 In_W_J_ZGL_03_02 CONDUIT           77.1    1.2966    0.0120
  W_L_BHR_01       In_W_J_BHR_01(W_RU_BHR_01) In_W_J_BHR_02    CONDUIT           65.2    4.5774    0.0170
  W_L_BHR_02       In_W_J_BHR_02    In_W_J_BHR_03    CONDUIT          496.9    4.5853    0.0170
  W_L_BHR_03       In_W_J_BHR_03    In_W_J_BHR_04    CONDUIT           73.7    4.5904    0.0170
  W_L_BHR_04       In_W_J_BHR_04    In_W_J_BHR_05(W_U_BHR_02) CONDUIT          346.6    4.5841    0.0170
  W_L_BHR_05       In_W_J_BHR_05(W_U_BHR_02) In_W_J_BHR_06    CONDUIT         1000.0    3.0012    0.0170
  W_L_BHR_06       In_W_J_BHR_06    In_W_J_FRH_03    CONDUIT            4.2  360.5701    0.0150
  W_L_FRH_01       In_W_J_FRH_01(W_RU_FRH_01) In_W_J_FRH_02(W_RU_FRH_02) CONDUIT         1435.7    8.1778    0.0350
  W_L_FRH_02       In_W_J_FRH_02(W_RU_FRH_02) In_W_J_FRH_03    CONDUIT         1586.5    8.0945    0.0350
  W_L_FRH_03       In_W_J_FRH_03    In_W_J_FRH_04    CONDUIT          199.7    7.6495    0.0350
  W_L_FRH_04       In_W_J_FRH_04    In_W_J_FRH_05(W_U_FRH_03) CONDUIT          387.5    4.3317    0.0350
  W_L_FRH_05       In_W_J_FRH_05(W_U_FRH_03) In_W_J_FRH_06(W_U_FRH_04) CONDUIT         1019.0    4.3395    0.0350
  W_L_MRD_01       In_W_J_MRD_01(W_RU_MRD_01) In_W_J_MRD_02(W_U_MRD_03) CONDUIT          134.2    3.0046    0.0170
  W_L_MRD_02       In_W_J_MRD_02(W_U_MRD_03) In_W_J_MRD_03    CONDUIT          682.5    1.5005    0.0170
  W_L_MRD_04       In_W_J_MRD_03    In_W_J_MRD_05(W_U_MRD_02) CONDUIT           95.2    1.2001    0.0170
  W_L_MRD_05       In_W_J_MRD_04    In_W_J_MRD_04_05_3 CONDUIT          241.9    1.9073    0.0170
  W_L_MRD_06       In_W_J_MRD_05(W_U_MRD_02) In_W_J_MRD_05(W_U_MRD_02)_1 CONDUIT          250.0    1.0696    0.0170
  W_L_MRD_07       In_W_J_MRD_06    In_W_J_MRD_07    CONDUIT           54.3    1.8426    0.0170
  W_L_MRD_08       In_W_J_MRD_07    In_W_J_MRD_08    CONDUIT           20.4   10.9653    0.0150
  W_L_MRD_09       In_W_J_MRD_08    In_W_J_MRD_09    CONDUIT           23.7   10.9653    0.0150
  W_L_MRD_10       In_W_J_MRD_09    In_W_J_MRD_10    CONDUIT           26.7   10.9653    0.0150
  W_L_MRD_11       In_W_J_MRD_10    In_W_J_FRH_05(W_U_FRH_03) CONDUIT           23.7   23.8128    0.0150
  W_L_VSK_01       In_W_J_VSK_01(W_U_VSK_02) In_W_J_VSK_02(W_RU_VSK_01) CONDUIT            7.6    0.5284    0.0170
  W_L_VSK_02       In_W_J_VSK_02(W_RU_VSK_01) In_W_J_VSK_03    CONDUIT           34.3    0.4961    0.0170
  W_L_VSK_03       In_W_J_VSK_03    In_W_J_VSK_04    CONDUIT          809.6    0.5003    0.0170
  W_L_VSK_04       In_W_J_VSK_04    In_W_J_VSK_05(W_U_VSK_03) CONDUIT           33.9    0.5009    0.0170
  W_L_VSK_05       In_W_J_VSK_05(W_U_VSK_03) In_W_J_VSK_06    CONDUIT          126.7    0.4972    0.0170
  W_L_VSK_06       In_W_J_VSK_06    In_W_J_VSK_07    CONDUIT          909.6    0.4991    0.0170
  W_L_VSK_07       In_W_J_VSK_07    In_W_J_VSK_08    CONDUIT           91.3    0.5038    0.0170
  W_L_VSK_08       In_W_J_VSK_08    In_W_J_VSK_09    CONDUIT          106.8    0.4961    0.0170
  W_L_VSK_09       In_W_J_VSK_09    In_W_J_VSK_10(W_U_VSK_05) CONDUIT          179.8    0.5005    0.0170
  W_L_VSK_10       In_W_J_VSK_10(W_U_VSK_05) In_W_J_VSK_11    CONDUIT          229.1    0.5020    0.0170
  W_L_ZGL_01       In_W_J_ZGL_01(W_U_ZGL_01) In_W_J_ZGL_02(W_U_ZGL_02) CONDUIT          134.1    0.9996    0.0120
  W_L_ZGL_02       In_W_J_ZGL_02(W_U_ZGL_02) In_W_J_ZGL_02_03_4 CONDUIT           60.8    0.7036    0.0120
  W_L_ZGL_03       In_W_J_ZGL_03(W_U_ZGL_03) In_W_J_ZGL_04    CONDUIT          248.0    1.0002    0.0120
  W_L_ZGL_04       In_W_J_ZGL_04    In_W_J_ZGL_04_05 CONDUIT          188.3    0.7479    0.0120
  W_L_ZGL_05       In_W_J_ZGL_05(W_U_ZGL_04) In_W_J_ZGL_05_06 CONDUIT          695.1    0.9521    0.0120
  W_L_ZGL_06       In_W_J_ZGL_06    In_W_J_ZGL_07    CONDUIT           19.0    1.0001    0.0120
  W_L_ZGL_07       In_W_J_ZGL_07    In_W_J_ZGL_08    CONDUIT           54.0    1.0001    0.0120
  W_L_ZGL_08       In_W_J_ZGL_08    In_W_J_VSK_11    CONDUIT           42.0    0.3573    0.0150
  
  
  *********************
  Cross Section Summary
  *********************
                                        Full     Full     Hyd.     Max.   No. of     Full
  Conduit          Shape               Depth     Area     Rad.    Width  Barrels     Flow
  ---------------------------------------------------------------------------------------
  1-10             RECT_OPEN            0.30     0.16     0.19     0.52        1     1.08
  1-11             RECT_OPEN            0.30     0.16     0.19     0.52        1     0.98
  1-12             RECT_OPEN            0.30     0.16     0.19     0.52        1     3.82
  1-13             RECT_OPEN            0.50     0.33     0.28     0.65        1     5.04
  1-14             RECT_OPEN            0.30     0.12     0.17     0.39        1     0.77
  1-15             RECT_OPEN            0.40     0.26     0.25     0.65        1     1.83
  1-16             RECT_OPEN            0.30     0.16     0.19     0.52        1     1.29
  1-17             RECT_OPEN            0.30     0.16     0.19     0.52        1     1.07
  1-17-1           RECT_OPEN            0.30     0.16     0.19     0.52        1     4.48
  1-18             RECT_OPEN            0.30     0.12     0.17     0.39        1     0.61
  1-19             RECT_OPEN            0.30     0.12     0.17     0.39        1     0.42
  1-20             RECT_OPEN            0.50     0.13     0.17     0.26        1     0.71
  1-20-1           RECT_OPEN            0.30     0.12     0.17     0.39        1     5.30
  1-21             RECT_OPEN            0.20     0.10     0.14     0.52        1     0.58
  1-22             RECT_OPEN            0.40     0.26     0.25     0.65        1    11.81
  1-23             RECT_OPEN            0.40     0.26     0.25     0.65        1     2.02
  1-24             RECT_OPEN            0.40     0.26     0.25     0.65        1    11.95
  1-25             RECT_OPEN            0.30     0.12     0.17     0.39        1     0.66
  1-25-1           RECT_OPEN            0.30     0.16     0.19     0.52        1     7.15
  1-26             RECT_OPEN            0.30     0.12     0.17     0.39        1     1.12
  1-27             RECT_OPEN            0.20     0.10     0.14     0.52        1     3.61
  1-28             RECT_OPEN            0.20     0.10     0.14     0.52        1     0.66
  1-3              RECT_OPEN            0.30     0.12     0.17     0.39        1     0.48
  1-4              RECT_OPEN            0.40     0.26     0.25     0.65        1     2.08
  1-5              RECT_OPEN            0.30     0.12     0.17     0.39        1     0.43
  1-6              RECT_OPEN            0.30     0.12     0.17     0.39        1     0.57
  1-7              RECT_OPEN            0.40     0.26     0.25     0.65        1     0.75
  1-7-1            RECT_OPEN            0.40     0.26     0.25     0.65        1     0.51
  1-7-2            RECT_OPEN            0.40     0.26     0.25     0.65        1     7.60
  1-8              RECT_OPEN            0.40     0.26     0.25     0.65        1     2.04
  1-8-1            RECT_OPEN            0.40     0.26     0.25     0.65        1     2.04
  1-9              RECT_OPEN            0.30     0.20     0.21     0.65        1     3.14
  2-1              RECT_OPEN            0.30     0.16     0.19     0.52        1     0.65
  2-10             RECT_OPEN            0.30     0.12     0.17     0.39        1     2.85
  2-1-1            RECT_OPEN            0.30     0.16     0.19     0.52        1     0.64
  2-12             RECT_OPEN            0.30     0.12     0.17     0.39        1     0.66
  2-13             RECT_OPEN            0.40     0.21     0.23     0.52        1     6.42
  2-14             TRIANGULAR           0.10     0.01     0.04     0.26        1     0.10
  2-15             RECT_OPEN            0.40     0.21     0.23     0.52        1     3.51
  2-16             RECT_OPEN            0.60     0.31     0.28     0.52        1     2.25
  2-18             RECT_OPEN            0.20     0.13     0.15     0.65        1     0.68
  2-19             RECT_OPEN            0.30     0.20     0.21     0.65        1     0.82
  2-2              RECT_OPEN            0.40     0.36     0.28     0.91        1     2.95
  2-20             RECT_OPEN            0.30     0.16     0.19     0.52        1     1.15
  2-21             RECT_OPEN            0.30     0.12     0.17     0.39        1     0.70
  2-22             RECT_OPEN            0.30     0.12     0.17     0.39        1     5.28
  2-23             RECT_OPEN            0.30     0.12     0.17     0.39        1     2.83
  2-24             RECT_OPEN            0.30     0.16     0.19     0.52        1     0.91
  2-24-1           RECT_OPEN            0.30     0.16     0.19     0.52        1     0.80
  2-25             RECT_OPEN            0.30     0.16     0.19     0.52        1     0.84
  2-25-1           RECT_OPEN            0.30     0.16     0.19     0.52        1     0.66
  2-26             RECT_OPEN            0.30     0.12     0.17     0.39        1     0.38
  2-26-1           RECT_OPEN            0.30     0.12     0.17     0.39        1     0.65
  2-27             RECT_OPEN            0.40     0.26     0.25     0.65        1     8.18
  2-28             RECT_OPEN            0.20     0.10     0.14     0.52        1     0.47
  2-28-1           RECT_OPEN            0.20     0.10     0.14     0.52        1     0.22
  2-28-2           RECT_OPEN            0.20     0.10     0.14     0.52        1     0.34
  2-28-3           RECT_OPEN            0.30     0.16     0.19     0.52        1     0.94
  2-29             RECT_OPEN            0.30     0.23     0.22     0.78        1     1.75
  2-29-1           RECT_OPEN            0.30     0.23     0.22     0.78        1     1.50
  2-3              RECT_OPEN            0.30     0.23     0.22     0.78        1     1.72
  2-30             RECT_OPEN            0.30     0.12     0.17     0.39        1     0.39
  2-30-1           RECT_OPEN            0.30     0.12     0.17     0.39        1     8.05
  2-31             RECT_OPEN            0.30     0.23     0.22     0.78        1     1.46
  2-31-1           RECT_OPEN            0.30     0.20     0.21     0.65        1     0.99
  2-32             RECT_OPEN            0.40     0.31     0.26     0.78        1     0.73
  2-34-1           RECT_OPEN            0.30     0.20     0.21     0.65        1     1.22
  2-35             RECT_OPEN            0.30     0.16     0.19     0.52        1     0.75
  2-36             RECT_OPEN            0.60     0.31     0.28     0.52        1     2.38
  2-38             RECT_OPEN            0.60     0.31     0.28     0.52        1     2.37
  2-4              RECT_OPEN            0.20     0.13     0.15     0.65        1     0.71
  2-41             RECT_OPEN            0.30     0.20     0.21     0.65        1     1.49
  2-4-1            RECT_OPEN            0.20     0.13     0.15     0.65        1     3.72
  2-43             RECT_OPEN            0.30     0.20     0.21     0.65        1     0.58
  2-44             RECT_OPEN            0.50     0.39     0.30     0.78        1     3.03
  2-44-1           RECT_OPEN            0.50     0.39     0.30     0.78        1     3.08
  2-45             RECT_OPEN            0.30     0.12     0.17     0.39        1     0.50
  2-46             RECT_OPEN            0.30     0.20     0.21     0.65        1     1.25
  2-46-1           RECT_OPEN            0.20     0.08     0.13     0.39        1     0.21
  2-47             RECT_OPEN            0.30     0.16     0.19     0.52        1     0.68
  2-48             RECT_OPEN            0.30     0.20     0.21     0.65        1     1.16
  2-49             RECT_OPEN            0.60     0.31     0.28     0.52        1     1.69
  2-49-1           RECT_OPEN            0.60     0.23     0.24     0.39        1     1.38
  2-5              RECT_OPEN            0.30     0.16     0.19     0.52        1     4.03
  2-50             RECT_OPEN            0.30     0.20     0.21     0.65        1     1.12
  2-51             RECT_OPEN            0.30     0.16     0.19     0.52        1     0.56
  2-52             RECT_OPEN            0.40     0.31     0.26     0.78        1     1.30
  2-53             RECT_OPEN            0.50     0.39     0.30     0.78        1     3.28
  2-53-1           RECT_OPEN            0.50     0.39     0.30     0.78        1     3.05
  2-56             RECT_OPEN            0.40     0.26     0.25     0.65        1     0.61
  2-56-1           RECT_OPEN            0.40     0.26     0.25     0.65        1     0.48
  2-57             RECT_OPEN            0.30     0.12     0.17     0.39        1     0.65
  2-57-1           RECT_OPEN            0.30     0.12     0.17     0.39        1     0.80
  2-58             RECT_OPEN            0.30     0.12     0.17     0.39        1     0.22
  2-58-1           RECT_OPEN            0.50     0.39     0.30     0.78        1     2.53
  2-6              RECT_OPEN            0.40     0.31     0.26     0.78        1     1.03
  2-60-1           RECT_OPEN            0.50     0.39     0.30     0.78        1     2.94
  2-61             RECT_OPEN            0.30     0.12     0.17     0.39        1     0.13
  2-63             RECT_OPEN            0.50     0.39     0.30     0.78        1     3.13
  2-63-1           RECT_OPEN            0.50     0.39     0.30     0.78        1     0.57
  2-63-2           RECT_OPEN            0.30     0.16     0.19     0.52        1     0.36
  2-64             RECT_OPEN            0.50     0.39     0.30     0.78        1     2.65
  2-65             RECT_OPEN            0.50     0.39     0.30     0.78        1     2.93
  2-66             RECT_OPEN            0.50     0.39     0.30     0.78        1     3.25
  2-67             RECT_OPEN            0.40     0.31     0.26     0.78        1     1.17
  2-68             RECT_OPEN            0.40     0.21     0.23     0.52        1     1.31
  2-69             RECT_OPEN            0.40     0.31     0.26     0.78        1     2.35
  2-71             RECT_OPEN            0.30     0.12     0.17     0.39        1     0.27
  2-72             RECT_OPEN            0.30     0.16     0.19     0.52        1     0.87
  2-73             RECT_OPEN            0.40     0.31     0.26     0.78        1    10.45
  2-74             RECT_OPEN            0.30     0.16     0.19     0.52        1     0.86
  2-74-1           RECT_OPEN            0.30     0.23     0.22     0.78        1     2.30
  2-74-2           RECT_OPEN            0.60     0.47     0.34     0.78        1    22.70
  2-75             RECT_OPEN            0.30     0.12     0.17     0.39        1     1.65
  2-76             RECT_OPEN            0.40     0.21     0.23     0.52        1     7.39
  2-77             RECT_OPEN            0.30     0.16     0.19     0.52        1     0.61
  2-78-1           RECT_OPEN            0.40     0.31     0.26     0.78        1     1.08
  2-79             RECT_OPEN            0.50     0.39     0.30     0.78        1     3.17
  2-8              RECT_OPEN            0.40     0.42     0.29     1.04        1     8.61
  2-80             RECT_OPEN            0.30     0.12     0.17     0.39        1     0.52
  2-80-1           RECT_OPEN            0.30     0.16     0.19     0.52        1     0.90
  2-81             RECT_OPEN            0.30     0.16     0.19     0.52        1     0.88
  2-82             RECT_OPEN            0.40     0.31     0.26     0.78        1     2.19
  2-83             RECT_OPEN            0.30     0.16     0.19     0.52        1     0.88
  2-84             RECT_OPEN            0.30     0.20     0.21     0.65        1     0.90
  2-86             RECT_OPEN            0.30     0.12     0.17     0.39        1     1.58
  2-87             RECT_OPEN            0.40     0.26     0.25     0.65        1     0.79
  2-87-1           RECT_OPEN            0.40     0.26     0.25     0.65        1     0.82
  2-87-2           RECT_OPEN            0.40     0.26     0.25     0.65        1    10.37
  2-88             RECT_OPEN            0.30     0.20     0.21     0.65        1     0.92
  2-88-1           RECT_OPEN            0.30     0.12     0.17     0.39        1     1.50
  2-9              RECT_OPEN            0.30     0.23     0.22     0.78        1     4.38
  3-10             RECT_OPEN            0.20     0.10     0.14     0.52        1     0.26
  3-11             RECT_OPEN            0.20     0.10     0.14     0.52        1     0.47
  3-12             RECT_OPEN            0.30     0.12     0.17     0.39        1     0.16
  3-12-1           RECT_OPEN            0.30     0.12     0.17     0.39        1     0.65
  3-13             RECT_OPEN            0.30     0.12     0.17     0.39        1     0.71
  3-14             RECT_OPEN            0.30     0.23     0.22     0.78        1     1.10
  3-142            TRIANGULAR           0.20     0.03     0.05     0.26        1     0.15
  3-15             RECT_OPEN            0.30     0.16     0.19     0.52        1     0.81
  3-16             RECT_OPEN            0.30     0.12     0.17     0.39        1     0.60
  3-16-1           RECT_OPEN            0.30     0.16     0.19     0.52        1     0.89
  3-16-2           RECT_OPEN            0.50     0.39     0.30     0.78        1    31.66
  3-17             RECT_OPEN            0.40     0.31     0.26     0.78        1     2.21
  3-18             RECT_OPEN            0.40     0.31     0.26     0.78        1     9.89
  3-19             RECT_OPEN            0.50     0.39     0.30     0.78        1     3.06
  3-2              RECT_OPEN            0.20     0.16     0.16     0.78        1     0.34
  3-20             RECT_OPEN            0.40     0.26     0.25     0.65        1     3.38
  3-21             RECT_OPEN            0.30     0.12     0.17     0.39        1     1.91
  3-22             TRIANGULAR           0.20     0.03     0.05     0.26        1     0.17
  3-3              RECT_OPEN            0.40     0.31     0.26     0.78        1     1.11
  3-3-1            RECT_OPEN            0.40     0.31     0.26     0.78        1     1.14
  3-3-2            RECT_OPEN            0.30     0.23     0.22     0.78        1     0.36
  3-5              RECT_OPEN            0.20     0.10     0.14     0.52        1     0.69
  3-6              RECT_OPEN            0.30     0.12     0.17     0.39        1     0.95
  3-7              RECT_OPEN            0.30     0.12     0.17     0.39        1     0.82
  3-7-1            RECT_OPEN            0.30     0.12     0.17     0.39        1     0.82
  3-8              RECT_OPEN            0.20     0.10     0.14     0.52        1     0.37
  3-9              RECT_OPEN            0.40     0.31     0.26     0.78        1     0.93
  W_L_ZGL_051      CIRCULAR             1.60     2.01     0.40     1.60        1     9.42
  W_L_ZGL_041      CIRCULAR             1.60     2.01     0.40     1.60        1     9.53
  W_L_ZGL_025      CIRCULAR             1.60     2.01     0.40     1.60        1     8.76
  W_L_ZGL_023      CIRCULAR             1.60     2.01     0.40     1.60        1     7.54
  W_L_ZGL_022      CIRCULAR             1.60     2.01     0.40     1.60        1    10.08
  W_L_ZGL_021      CIRCULAR             1.60     2.01     0.40     1.60        1     6.87
  W_L_MRD_053      RECT_CLOSED          1.40     1.96     0.35     1.40        1     5.99
  W_L_MRD_061      RECT_CLOSED          1.40     1.96     0.35     1.40        1     6.90
  W_L_MRD_062      RECT_CLOSED          1.40     1.96     0.35     1.40        1     5.79
  W_L_MRD_051      RECT_CLOSED          1.40     1.96     0.35     1.40        1     7.01
  W_L_MRD_052      RECT_CLOSED          1.40     1.96     0.35     1.40        1     8.29
  W_L_MRD_054      RECT_CLOSED          1.40     1.96     0.35     1.40        1     7.64
  W_L_ZGL_024      CIRCULAR             1.60     2.01     0.40     1.60        1    10.36
  W_L_BHR_01       RECT_OPEN            1.20     7.20     1.00     6.00        1    90.63
  W_L_BHR_02       RECT_OPEN            1.20     7.20     1.00     6.00        1    90.71
  W_L_BHR_03       RECT_OPEN            1.20     7.20     1.00     6.00        1    90.76
  W_L_BHR_04       RECT_OPEN            1.20     7.20     1.00     6.00        1    90.69
  W_L_BHR_05       SEMIELLIPTICAL       2.60     5.31     0.63     2.60        1    39.71
  W_L_BHR_06       DUMMY                0.00     0.00     0.00     0.00        1     0.00
  W_L_FRH_01       TRAPEZOIDAL          2.00    28.00     1.48    18.00        1   296.89
  W_L_FRH_02       TRAPEZOIDAL          2.00    28.00     1.48    18.00        1   295.38
  W_L_FRH_03       TRAPEZOIDAL          2.00    28.00     1.48    18.00        1   287.14
  W_L_FRH_04       TRAPEZOIDAL          2.00    32.00     1.53    20.00        1   252.47
  W_L_FRH_05       RECT_OPEN            2.00    24.00     1.71    12.00        1   204.64
  W_L_MRD_01       RECT_OPEN            1.50     2.40     0.77     1.60        1    20.64
  W_L_MRD_02       RECT_CLOSED          1.50     2.40     0.39     1.60        1     9.19
  W_L_MRD_04       RECT_CLOSED          1.40     1.96     0.35     1.40        1     6.27
  W_L_MRD_05       RECT_CLOSED          1.40     1.96     0.35     1.40        1     7.91
  W_L_MRD_06       RECT_CLOSED          1.40     1.96     0.35     1.40        1     5.92
  W_L_MRD_07       RECT_CLOSED          1.40     1.96     0.35     1.40        1     7.77
  W_L_MRD_08       CIRCULAR             2.50     4.91     0.63     2.50        1    79.23
  W_L_MRD_09       CIRCULAR             2.50     4.91     0.63     2.50        1    79.23
  W_L_MRD_10       CIRCULAR             2.50     4.91     0.63     2.50        1    79.23
  W_L_MRD_11       DUMMY                0.00     0.00     0.00     0.00        1     0.00
  W_L_VSK_01       RECT_OPEN            3.80    19.00     2.16     5.00        1   135.74
  W_L_VSK_02       RECT_OPEN            3.80    19.00     2.16     5.00        1   131.52
  W_L_VSK_03       RECT_OPEN            3.80    19.00     2.16     5.00        1   132.08
  W_L_VSK_04       RECT_CLOSED          3.80    19.00     1.08     5.00        1    83.25
  W_L_VSK_05       RECT_CLOSED          3.80    19.00     1.08     5.00        1    82.94
  W_L_VSK_06       RECT_OPEN            4.00    20.00     2.22     5.00        1   141.56
  W_L_VSK_07       RECT_CLOSED          4.20    21.00     1.14     5.00        1    95.77
  W_L_VSK_08       RECT_OPEN            4.50    22.50     2.37     5.00        1   165.66
  W_L_VSK_09       RECT_CLOSED          4.20    21.00     1.14     5.00        1    95.46
  W_L_VSK_10       RECT_CLOSED          4.20    21.00     1.14     5.00        1    95.60
  W_L_ZGL_01       CIRCULAR             1.60     2.01     0.40     1.60        1     9.10
  W_L_ZGL_02       CIRCULAR             1.60     2.01     0.40     1.60        1     7.63
  W_L_ZGL_03       CIRCULAR             1.60     2.01     0.40     1.60        1     9.10
  W_L_ZGL_04       CIRCULAR             1.60     2.01     0.40     1.60        1     7.87
  W_L_ZGL_05       CIRCULAR             1.60     2.01     0.40     1.60        1     8.88
  W_L_ZGL_06       CIRCULAR             1.60     2.01     0.40     1.60        1     9.10
  W_L_ZGL_07       CIRCULAR             1.60     2.01     0.40     1.60        1     9.10
  W_L_ZGL_08       CIRCULAR             2.00     3.14     0.50     2.00        1     7.89
  
  
  
  ****************
  Transect Summary
  ****************

  Transect XS-02
  Area:  
              0.0054     0.0113     0.0177     0.0246     0.0319 
              0.0397     0.0480     0.0568     0.0661     0.0758 
              0.0894     0.1085     0.1281     0.1483     0.1690 
              0.1903     0.2122     0.2356     0.2591     0.2829 
              0.3068     0.3307     0.3546     0.3785     0.4024 
              0.4263     0.4502     0.4741     0.4980     0.5219 
              0.5458     0.5697     0.5937     0.6176     0.6415 
              0.6654     0.6893     0.7132     0.7371     0.7610 
              0.7849     0.8088     0.8327     0.8566     0.8805 
              0.9044     0.9283     0.9522     0.9761     1.0000 
  Hrad:  
              0.0308     0.0587     0.0843     0.1082     0.1308 
              0.1523     0.1729     0.1927     0.2119     0.2306 
              0.1485     0.1747     0.2003     0.2252     0.2495 
              0.2733     0.2831     0.3091     0.3345     0.3595 
              0.3857     0.4114     0.4366     0.4612     0.4854 
              0.5091     0.5322     0.5550     0.5773     0.5991 
              0.6206     0.6416     0.6622     0.6825     0.7024 
              0.7219     0.7411     0.7599     0.7784     0.7965 
              0.8158     0.8370     0.8580     0.8788     0.8994 
              0.9199     0.9402     0.9603     0.9802     1.0000 
  Width: 
              0.2369     0.2570     0.2771     0.2972     0.3173 
              0.3373     0.3574     0.3775     0.3976     0.4177 
              0.7871     0.8100     0.8329     0.8558     0.8786 
              0.9015     0.9713     0.9808     0.9904     1.0000 
              1.0000     1.0000     1.0000     1.0000     1.0000 
              1.0000     1.0000     1.0000     1.0000     1.0000 
              1.0000     1.0000     1.0000     1.0000     1.0000 
              1.0000     1.0000     1.0000     1.0000     1.0000 
              1.0000     1.0000     1.0000     1.0000     1.0000 
              1.0000     1.0000     1.0000     1.0000     1.0000 
  
  
  *********************************************************
  NOTE: The summary statistics displayed in this report are
  based on results found at every computational time step,  
  not just on results from each reporting time step.
  *********************************************************
  
  ****************
  Analysis Options
  ****************
  Flow Units ............... CMS
  Process Models:
    Rainfall/Runoff ........ YES
    RDII ................... NO
    Snowmelt ............... NO
    Groundwater ............ NO
    Flow Routing ........... YES
    Ponding Allowed ........ YES
    Water Quality .......... NO
  Infiltration Method ...... CURVE_NUMBER
  Flow Routing Method ...... KINWAVE
  Starting Date ............ MAY-03-2015 00:00:00
  Ending Date .............. MAY-03-2015 10:00:00
  Antecedent Dry Days ...... 0.0
  Report Time Step ......... 00:05:00
  Wet Time Step ............ 00:05:00
  Dry Time Step ............ 01:00:00
  Routing Time Step ........ 30.00 sec
  
  
  *********************
  Control Actions Taken
  *********************

  
  **************************        Volume         Depth
  Runoff Quantity Continuity     hectare-m            mm
  **************************     ---------       -------
  Total Precipitation ......        69.784        69.174
  Evaporation Loss .........         0.000         0.000
  Infiltration Loss ........        36.380        36.062
  Surface Runoff ...........        32.662        32.377
  Final Storage ............         0.801         0.794
  Continuity Error (%) .....        -0.085
  
  
  **************************        Volume        Volume
  Flow Routing Continuity        hectare-m      10^6 ltr
  **************************     ---------     ---------
  Dry Weather Inflow .......         0.000         0.000
  Wet Weather Inflow .......        32.656       326.565
  Groundwater Inflow .......         0.000         0.000
  RDII Inflow ..............         0.000         0.000
  External Inflow ..........         0.000         0.000
  External Outflow .........        25.340       253.404
  Flooding Loss ............         7.469        74.694
  Evaporation Loss .........         0.000         0.000
  Exfiltration Loss ........         0.000         0.000
  Initial Stored Volume ....         0.000         0.000
  Final Stored Volume ......         0.115         1.145
  Continuity Error (%) .....        -0.820
  
  
  ********************************
  Highest Flow Instability Indexes
  ********************************
  Link W_L_ZGL_06 (7)
  Link W_L_ZGL_07 (6)
  Link W_L_ZGL_02 (3)
  Link W_L_MRD_09 (2)
  Link W_L_MRD_08 (2)
  
  
  *************************
  Routing Time Step Summary
  *************************
  Minimum Time Step           :    29.00 sec
  Average Time Step           :    30.00 sec
  Maximum Time Step           :    30.00 sec
  Percent in Steady State     :     0.00
  Average Iterations per Step :     1.27
  Percent Not Converging      :     0.00
  
  
  ***************************
  Subcatchment Runoff Summary
  ***************************
  
  --------------------------------------------------------------------------------------------------------
                            Total      Total      Total      Total      Total       Total     Peak  Runoff
                           Precip      Runon       Evap      Infil     Runoff      Runoff   Runoff   Coeff
  Subcatchment                 mm         mm         mm         mm         mm    10^6 ltr      CMS
  --------------------------------------------------------------------------------------------------------
  1-1                       69.17       0.00       0.00      45.76      22.41        7.44     0.84   0.324
  1-10                      69.17       0.00       0.00      39.25      29.60        0.60     0.16   0.428
  1-11                      69.17       0.00       0.00      20.06      49.16        1.30     0.53   0.711
[...]
  2-14                 CONDUIT     0.105     0  03:05      8.07    1.00    1.00
  2-15                 CONDUIT     0.146     0  03:22      5.76    0.04    0.12
  2-16                 CONDUIT     0.000     0  00:00      0.00    0.00    0.00
  2-18                 CONDUIT     0.335     0  03:21      4.10    0.49    0.63
  2-19                 CONDUIT     0.820     0  03:17      4.30    1.00    1.00
  2-2                  CONDUIT     0.891     0  03:21      5.47    0.30    0.45
  2-20                 CONDUIT     0.241     0  03:21      4.40    0.21    0.35
  2-21                 CONDUIT     0.696     0  03:23      5.97    1.00    1.00
  2-22                 CONDUIT     0.768     0  03:23     24.33    0.15    0.27
  2-23                 CONDUIT     0.153     0  03:21      9.13    0.05    0.14
  2-24                 CONDUIT     0.915     0  03:20      5.93    1.00    1.00
  2-24-1               CONDUIT     0.803     0  03:16      5.15    1.00    1.00
  2-25                 CONDUIT     0.306     0  03:21      3.94    0.36    0.50
  2-25-1               CONDUIT     0.304     0  03:21      3.33    0.46    0.59
  2-26                 CONDUIT     0.269     0  03:21      3.01    0.70    0.77
  2-26-1               CONDUIT     0.653     0  03:14      5.58    1.00    1.00
  2-27                 CONDUIT     1.517     0  03:21     18.06    0.19    0.32
  2-28                 CONDUIT     0.468     0  03:16      4.57    1.00    1.00
  2-28-1               CONDUIT     0.216     0  03:13      2.09    1.00    1.00
  2-28-2               CONDUIT     0.217     0  03:13      2.80    0.65    0.75
  2-28-3               CONDUIT     0.799     0  03:19      5.74    0.85    0.89
  2-29                 CONDUIT     0.406     0  03:21      4.52    0.23    0.38
  2-29-1               CONDUIT     0.401     0  03:21      4.07    0.27    0.42
  2-3                  CONDUIT     1.405     0  03:21      6.96    0.82    0.87
  2-30                 CONDUIT     0.161     0  03:21      2.59    0.41    0.53
  2-30-1               CONDUIT     1.661     0  03:21     41.90    0.21    0.34
  2-31                 CONDUIT     0.800     0  03:21      5.11    0.55    0.67
  2-31-1               CONDUIT     0.799     0  03:21      4.75    0.80    0.86
  2-32                 CONDUIT     0.087     0  03:26      1.14    0.12    0.25
  2-34-1               CONDUIT     0.232     0  03:21      3.54    0.19    0.34
  2-35                 CONDUIT     0.325     0  03:21      3.73    0.43    0.56
  2-36                 CONDUIT     0.063     0  03:21      2.36    0.03    0.09
  2-38                 CONDUIT     1.235     0  03:20      6.41    0.52    0.62
  2-4                  CONDUIT     0.223     0  03:21      3.63    0.31    0.47
  2-41                 CONDUIT     0.924     0  03:21      6.56    0.62    0.72
  2-4-1                CONDUIT     0.223     0  03:21     10.14    0.06    0.17
  2-43                 CONDUIT     0.582     0  03:19      3.00    1.00    1.00
  2-44                 CONDUIT     3.032     0  03:20      7.78    1.00    1.00
  2-44-1               CONDUIT     3.076     0  03:17      7.89    1.00    1.00
  2-45                 CONDUIT     0.167     0  03:21      3.09    0.33    0.46
  2-46                 CONDUIT     1.234     0  03:20      6.39    0.99    0.99
  2-46-1               CONDUIT     0.207     0  02:51      2.65    1.00    1.00
  2-47                 CONDUIT     0.344     0  03:21      3.58    0.51    0.62
  2-48                 CONDUIT     1.163     0  03:15      6.00    1.00    1.00
  2-49                 CONDUIT     1.547     0  03:21      5.37    0.92    0.94
  2-49-1               CONDUIT     1.383     0  03:18      5.91    1.00    1.00
  2-5                  CONDUIT     1.997     0  03:40     20.71    0.50    0.62
  2-50                 CONDUIT     0.308     0  03:22      3.74    0.27    0.42
  2-51                 CONDUIT     0.563     0  03:15      3.64    1.00    1.00
  2-52                 CONDUIT     0.153     0  03:28      2.00    0.12    0.25
  2-53                 CONDUIT     1.136     0  03:22      6.02    0.35    0.48
  2-53-1               CONDUIT     1.135     0  03:22      5.74    0.37    0.51
  2-56                 CONDUIT     0.208     0  03:21      1.69    0.34    0.48
  2-56-1               CONDUIT     0.480     0  03:18      1.87    1.00    1.00
  2-57                 CONDUIT     0.394     0  03:21      4.84    0.61    0.70
  2-57-1               CONDUIT     0.528     0  03:21      6.08    0.66    0.74
  2-58                 CONDUIT     0.216     0  03:12      1.87    1.00    1.00
  2-58-1               CONDUIT     2.534     0  03:15      6.50    1.00    1.00
  2-6                  CONDUIT     1.032     0  03:13      3.31    1.00    1.00
  2-60-1               CONDUIT     2.810     0  03:20      7.44    0.95    0.97
  2-61                 CONDUIT     0.134     0  03:13      1.15    1.00    1.00
  2-63                 CONDUIT     3.134     0  03:15      8.05    1.00    1.00
  2-63-1               CONDUIT     0.565     0  02:39      1.46    1.00    1.00
  2-63-2               CONDUIT     0.358     0  02:18      2.31    1.00    1.00
  2-64                 CONDUIT     0.260     0  03:24      3.12    0.10    0.21
  2-65                 CONDUIT     0.094     0  03:22      2.27    0.03    0.11
  2-66                 CONDUIT     0.441     0  03:21      4.31    0.14    0.26
  2-67                 CONDUIT     0.693     0  03:22      3.24    0.59    0.69
  2-68                 CONDUIT     0.638     0  03:21      5.18    0.49    0.60
  2-69                 CONDUIT     1.875     0  03:21      7.05    0.80    0.85
  2-71                 CONDUIT     0.271     0  03:01      2.32    1.00    1.00
  2-72                 CONDUIT     0.254     0  03:21      3.79    0.29    0.44
  2-73                 CONDUIT     1.783     0  03:21     18.39    0.17    0.31
  2-74                 CONDUIT     0.859     0  03:16      5.61    1.00    1.00
  2-74-1               CONDUIT     1.218     0  03:17      7.94    0.53    0.66
  2-74-2               CONDUIT     1.736     0  03:19     20.69    0.08    0.18
  2-75                 CONDUIT     1.306     0  03:21     13.36    0.79    0.85
  2-76                 CONDUIT     1.233     0  03:20     20.11    0.17    0.30
  2-77                 CONDUIT     0.296     0  03:21      3.12    0.49    0.61
  2-78-1               CONDUIT     1.079     0  03:15      3.47    1.00    1.00
  2-79                 CONDUIT     1.482     0  03:21      6.43    0.47    0.59
  2-8                  CONDUIT     2.696     0  03:21     13.91    0.31    0.47
  2-80                 CONDUIT     0.519     0  03:16      4.47    1.00    1.00
  2-80-1               CONDUIT     0.519     0  03:23      4.90    0.58    0.68
  2-81                 CONDUIT     0.452     0  03:21      4.61    0.51    0.63
  2-82                 CONDUIT     1.378     0  03:21      6.11    0.63    0.73
  2-83                 CONDUIT     0.483     0  03:21      4.72    0.55    0.66
  2-84                 CONDUIT     0.402     0  03:22      3.58    0.44    0.58
  2-86                 CONDUIT     0.342     0  03:21      8.45    0.22    0.35
  2-87                 CONDUIT     0.082     0  03:23      1.43    0.10    0.22
  2-87-1               CONDUIT     0.745     0  03:21      3.08    0.91    0.94
  2-87-2               CONDUIT     1.272     0  03:21     19.71    0.12    0.25
  2-88                 CONDUIT     0.768     0  03:22      4.49    0.84    0.89
  2-88-1               CONDUIT     1.500     0  03:21     12.82    1.00    1.00
  2-9                  CONDUIT     0.527     0  03:21      8.82    0.12    0.26
  3-10                 CONDUIT     0.214     0  03:21      2.38    0.81    0.87
  3-11                 CONDUIT     0.467     0  03:14      4.49    1.00    1.00
  3-12                 CONDUIT     0.156     0  03:13      1.34    1.00    1.00
  3-12-1               CONDUIT     0.156     0  05:29      3.56    0.24    0.37
  3-13                 CONDUIT     0.707     0  03:17      6.05    1.00    1.00
  3-14                 CONDUIT     1.102     0  03:11      4.71    1.00    1.00
  3-142                CONDUIT     0.148     0  03:16      5.73    1.00    1.00
  3-15                 CONDUIT     0.070     0  03:22      2.26    0.09    0.20
  3-16                 CONDUIT     0.405     0  03:21      4.63    0.67    0.75
  3-16-1               CONDUIT     0.470     0  03:21      4.69    0.53    0.64
  3-16-2               CONDUIT     1.286     0  03:21     26.65    0.04    0.12
  3-17                 CONDUIT     0.040     0  03:21      1.66    0.02    0.08
  3-18                 CONDUIT     1.756     0  03:21     17.64    0.18    0.32
  3-19                 CONDUIT     0.828     0  03:21      5.24    0.27    0.41
  3-2                  CONDUIT     0.336     0  03:16      2.15    1.00    1.00
  3-20                 CONDUIT     0.409     0  03:23      6.42    0.12    0.25
  3-21                 CONDUIT     0.192     0  03:21      7.71    0.10    0.21
  3-22                 CONDUIT     0.174     0  03:21      6.70    1.00    1.00
  3-3                  CONDUIT     0.524     0  03:21      2.80    0.47    0.60
  3-3-1                CONDUIT     0.523     0  03:21      2.85    0.46    0.59
  3-3-2                CONDUIT     0.362     0  03:13      1.55    1.00    1.00
  3-5                  CONDUIT     0.692     0  03:14      6.67    1.00    1.00
  3-6                  CONDUIT     0.614     0  03:21      7.21    0.65    0.74
  3-7                  CONDUIT     0.816     0  03:18      7.06    1.00    1.00
  3-7-1                CONDUIT     0.816     0  03:22      7.05    1.00    1.00
  3-8                  CONDUIT     0.366     0  03:12      3.52    1.00    1.00
  3-9                  CONDUIT     0.932     0  03:12      3.00    1.00    1.00
  W_L_ZGL_051          CONDUIT    10.165     0  03:20      5.49    1.08    1.00
  W_L_ZGL_041          CONDUIT    10.292     0  03:23      5.58    1.08    1.00
  W_L_ZGL_025          CONDUIT     8.411     0  03:25      5.00    0.96    0.79
  W_L_ZGL_023          CONDUIT     7.952     0  03:24      4.36    1.05    0.94
  W_L_ZGL_022          CONDUIT     5.483     0  03:24      5.12    0.54    0.53
  W_L_ZGL_021          CONDUIT     4.905     0  03:24      3.75    0.71    0.62
  W_L_MRD_053          CONDUIT     6.317     0  03:24      3.70    1.05    0.94
  W_L_MRD_061          CONDUIT     6.450     0  03:23      4.10    0.93    0.81
  W_L_MRD_062          CONDUIT     6.377     0  04:01      3.65    1.10    0.95
  W_L_MRD_051          CONDUIT     2.705     0  03:22      3.37    0.39    0.41
  W_L_MRD_052          CONDUIT     3.890     0  03:22      4.17    0.47    0.48
  W_L_MRD_054          CONDUIT     6.273     0  03:25      4.47    0.82    0.73
  W_L_ZGL_024          CONDUIT     8.056     0  03:24      5.71    0.78    0.66
  W_L_BHR_01           CONDUIT     0.000     0  00:00      0.00    0.00    0.00
  W_L_BHR_02           CONDUIT     0.000     0  00:00      0.00    0.00    0.00
  W_L_BHR_03           CONDUIT     0.000     0  00:00      0.00    0.00    0.00
  W_L_BHR_04           CONDUIT     0.000     0  00:00      0.00    0.00    0.00
  W_L_BHR_05           CONDUIT     0.000     0  00:00      0.00    0.00    0.00
  W_L_BHR_06           DUMMY       0.000     0  00:00
  W_L_FRH_01           CONDUIT     0.000     0  00:00      0.00    0.00    0.00
  W_L_FRH_02           CONDUIT     0.000     0  00:00      0.00    0.00    0.00
  W_L_FRH_03           CONDUIT     0.806     0  03:22      1.26    0.00    0.03
  W_L_FRH_04           CONDUIT     0.742     0  03:26      0.96    0.00    0.03
  W_L_FRH_05           CONDUIT    13.946     0  03:27      3.09    0.07    0.19
  W_L_MRD_01           CONDUIT     0.000     0  00:00      0.00    0.00    0.00
  W_L_MRD_02           CONDUIT     0.000     0  00:00      0.00    0.00    0.00
  W_L_MRD_04           CONDUIT     7.317     0  03:22      3.86    1.17    1.00
  W_L_MRD_05           CONDUIT     0.530     0  03:21      2.23    0.07    0.12
  W_L_MRD_06           CONDUIT     6.495     0  03:22      3.72    1.10    0.96
  W_L_MRD_07           CONDUIT     6.270     0  04:02      4.48    0.81    0.72
  W_L_MRD_08           CONDUIT    13.675     0  03:25     12.08    0.17    0.28
  W_L_MRD_09           CONDUIT    13.667     0  03:23     12.08    0.17    0.28
  W_L_MRD_10           CONDUIT    13.662     0  03:23     12.08    0.17    0.28
  W_L_MRD_11           DUMMY      13.662     0  03:23
  W_L_VSK_01           CONDUIT     0.000     0  00:00      0.00    0.00    0.00
  W_L_VSK_02           CONDUIT     0.000     0  00:00      0.00    0.00    0.00
  W_L_VSK_03           CONDUIT     0.000     0  00:00      0.00    0.00    0.00
  W_L_VSK_04           CONDUIT     0.000     0  00:00      0.00    0.00    0.00
  W_L_VSK_05           CONDUIT     2.688     0  03:31      1.75    0.03    0.08
  W_L_VSK_06           CONDUIT     3.684     0  03:26      2.05    0.03    0.09
  W_L_VSK_07           CONDUIT     3.864     0  03:26      2.01    0.04    0.09
  W_L_VSK_08           CONDUIT     3.860     0  03:27      2.06    0.02    0.08
  W_L_VSK_09           CONDUIT     4.572     0  03:28      2.13    0.05    0.10
  W_L_VSK_10           CONDUIT     4.559     0  03:29      2.13    0.05    0.10
  W_L_ZGL_01           CONDUIT     0.000     0  00:00      0.00    0.00    0.00
  W_L_ZGL_02           CONDUIT     4.545     0  03:21      3.96    0.60    0.56
  W_L_ZGL_03           CONDUIT     9.590     0  03:27      5.27    1.05    0.91
  W_L_ZGL_04           CONDUIT     8.364     0  03:41      4.55    1.06    1.00
  W_L_ZGL_05           CONDUIT     9.585     0  03:22      5.22    1.08    1.00
  W_L_ZGL_06           CONDUIT     9.787     0  04:07      5.18    1.08    1.00
  W_L_ZGL_07           CONDUIT     9.671     0  03:20      5.23    1.06    0.99
  W_L_ZGL_08           CONDUIT     8.446     0  04:20      2.90    1.07    1.00
  
  
  *************************
  Conduit Surcharge Summary
  *************************
  
  ----------------------------------------------------------------------------
                                                           Hours        Hours 
                         --------- Hours Full --------   Above Full   Capacity
  Conduit                Both Ends  Upstream  Dnstream   Normal Flow   Limited
  ----------------------------------------------------------------------------
  1-13                        0.33      0.33      0.33      0.32         0.33
  1-15                        0.46      0.46      0.46      0.45         0.46
  1-18                        0.06      0.06      0.06      0.04         0.06
  1-19                        0.54      0.54      0.54      0.53         0.54
  1-20                        0.26      0.26      0.26      0.26         0.26
  1-21                        0.18      0.18      0.18      0.01         0.18
  1-25                        0.08      0.08      0.08      0.08         0.08
  1-3                         2.32      2.32      2.32      2.31         2.32
  1-5                         3.61      3.61      3.61      3.60         3.61
  1-7                         0.68      0.68      0.68      0.68         0.68
  1-7-1                       2.09      2.09      2.09      0.01         2.09
  2-1                         0.04      0.04      0.04      0.04         0.04
  2-1-1                       0.63      0.63      0.63      0.63         0.63
  2-12                        0.17      0.17      0.17      0.17         0.17
  2-14                        1.11      1.11      1.11      1.11         1.11
  2-19                        0.10      0.10      0.10      0.10         0.10
  2-21                        0.03      0.03      0.03      0.01         0.03
  2-24                        0.03      0.03      0.03      0.02         0.03
  2-24-1                      0.17      0.17      0.17      0.17         0.17
  2-26-1                      0.45      0.45      0.45      0.45         0.45
  2-28                        0.13      0.13      0.13      0.13         0.13
  2-28-1                      0.39      0.39      0.39      0.01         0.39
  2-43                        0.08      0.08      0.08      0.07         0.08
  2-44                        0.06      0.06      0.06      0.05         0.06
  2-44-1                      0.28      0.28      0.28      0.28         0.28
  2-46-1                      2.41      2.41      2.41      2.40         2.41
  2-48                        0.18      0.18      0.18      0.18         0.18
  2-49-1                      0.15      0.15      0.15      0.14         0.15
  2-51                        0.50      0.50      0.50      0.50         0.50
  2-56-1                      0.17      0.17      0.17      0.17         0.17
  2-58                        0.49      0.49      0.49      0.48         0.49
  2-58-1                      0.63      0.63      0.63      0.63         0.63
  2-6                         0.53      0.53      0.53      0.53         0.53
  2-61                        0.43      0.43      0.43      0.42         0.43
  2-63                        0.15      0.15      0.15      0.14         0.15
  2-63-1                      3.82      3.82      3.82      3.81         3.82
  2-63-2                      4.44      4.44      4.44      4.44         4.44
  2-71                        2.24      2.24      2.24      2.24         2.24
  2-74                        0.13      0.13      0.13      0.13         0.13
  2-78-1                      0.54      0.54      0.54      0.53         0.54
  2-80                        0.13      0.13      0.13      0.12         0.13
  2-88-1                      0.06      0.06      0.06      0.06         0.06
  3-11                        0.79      0.79      0.79      0.79         0.79
  3-12                        2.27      2.27      2.27      2.27         2.27
  3-13                        0.18      0.18      0.18      0.17         0.18
  3-14                        1.56      1.56      1.56      1.55         1.56
  3-142                       1.17      1.17      1.17      1.16         1.17
  3-2                         0.64      0.64      0.64      0.01         0.64
  3-22                        0.23      0.23      0.23      0.23         0.23
  3-3-2                       1.02      1.02      1.02      0.01         1.02
  3-5                         0.23      0.23      0.23      0.01         0.23
  3-7                         0.07      0.07      0.07      0.07         0.07
  3-8                         0.88      0.88      0.88      0.88         0.88
  3-9                         1.16      1.16      1.16      0.01         1.16
  W_L_ZGL_051                 0.80      0.80      0.80      0.82         0.80
  W_L_ZGL_041                 0.44      0.44      0.44      0.07         0.44
  W_L_ZGL_023                 0.19      0.19      0.19      0.20         0.19
  W_L_MRD_053                 0.07      0.07      0.07      0.07         0.07
  W_L_MRD_062                 0.70      0.70      0.70      0.71         0.70
  W_L_MRD_04                  0.42      0.42      0.42      0.42         0.42
  W_L_MRD_06                  0.61      0.61      0.61      0.63         0.61
  W_L_ZGL_03                  0.07      0.07      0.07      0.07         0.07
  W_L_ZGL_04                  0.39      0.39      0.39      0.13         0.39
  W_L_ZGL_05                  0.63      0.63      0.63      0.07         0.63
  W_L_ZGL_06                  0.88      0.88      0.88      0.88         0.88
  W_L_ZGL_07                  0.88      0.88      0.88      0.88         0.88
  W_L_ZGL_08                  1.13      1.13      1.13      1.13         1.13
  

  Analysis begun on:  Tue Sep 19 03:21:48 2017
  Analysis ended on:  Tue Sep 19 03:21:48 2017
  Total elapsed time: < 1 sec